WARNING: Database file from DATABASE keyword is used; command line argument ignored.
   Input file: C:\Users\Eirik\Desktop\phreeqc-3.6.2-15100-x64\bin\Example3.pqi
  Output file: C:\Users\Eirik\Desktop\phreeqc-3.6.2-15100-x64\bin\Example3.pqi.out
Database file: C:\Users\Eirik\Desktop\phreeqc-3.6.2-15100-x64\database\phreeqc.dat

------------------
Reading data base.
------------------

	SOLUTION_MASTER_SPECIES
	SOLUTION_SPECIES
	PHASES
	EXCHANGE_MASTER_SPECIES
	EXCHANGE_SPECIES
	SURFACE_MASTER_SPECIES
	SURFACE_SPECIES
	RATES
	END
------------------------------------
Reading input data for simulation 1.
------------------------------------

	DATABASE C:\Program Files (x86)\USGS\Phreeqc Interactive 3.6.2-15100\database\phreeqc.dat
	SOLUTION 1-10	#Column is filled with 1 mmol of NaNO3
		Na	1
		N(5)	1
	EXCHANGE 1-10	#Column is filled with sand CEC = 1.1 meq/L
		X	1.1e-3
		equilibrate 1
	END
-------------------------------------------
Beginning of initial solution calculations.
-------------------------------------------

Initial solution 1.	

-----------------------------Solution composition------------------------------

	Elements           Molality       Moles

	N(5)              1.000e-03   1.000e-03
	Na                1.000e-03   1.000e-03

----------------------------Description of solution----------------------------

                                       pH  =   7.000    
                                       pe  =   4.000    
      Specific Conductance (µS/cm,  25°C)  = 118
                          Density (g/cm³)  =   0.99710
                               Volume (L)  =   1.00299
                        Activity of water  =   1.000
                 Ionic strength (mol/kgw)  =   1.000e-03
                       Mass of water (kg)  =   1.000e+00
                 Total alkalinity (eq/kg)  =   1.451e-09
                         Temperature (°C)  =  25.00
                  Electrical balance (eq)  =  -1.451e-09
 Percent error, 100*(Cat-|An|)/(Cat+|An|)  =  -0.00
                               Iterations  =   3
                                  Total H  = 1.110124e+02
                                  Total O  = 5.550922e+01

----------------------------Distribution of species----------------------------

                                               Log       Log       Log    mole V
   Species          Molality    Activity  Molality  Activity     Gamma   cm³/mol

   OH-             1.049e-07   1.012e-07    -6.979    -6.995    -0.016     -4.11
   H+              1.035e-07   1.000e-07    -6.985    -7.000    -0.015      0.00
   H2O             5.551e+01   1.000e+00     1.744    -0.000     0.000     18.07
H(0)          1.416e-25
   H2              7.078e-26   7.079e-26   -25.150   -25.150     0.000     28.61
N(5)          1.000e-03
   NO3-            1.000e-03   9.646e-04    -3.000    -3.016    -0.016     29.49
Na            1.000e-03
   Na+             1.000e-03   9.652e-04    -3.000    -3.015    -0.015     -1.48
   NaOH            9.767e-21   9.769e-21   -20.010   -20.010     0.000     (0)  
O(0)          0.000e+00
   O2              0.000e+00   0.000e+00   -42.080   -42.080     0.000     30.40

------------------------------Saturation indices-------------------------------

  Phase               SI** log IAP   log K(298 K,   1 atm)

  H2(g)           -22.05    -25.15   -3.10  H2
  H2O(g)           -1.50     -0.00    1.50  H2O
  O2(g)           -39.19    -42.08   -2.89  O2

**For a gas, SI = log10(fugacity). Fugacity = pressure * phi / 1 atm.
  For ideal gases, phi = 1.

-------------------------------------------------------
Beginning of initial exchange-composition calculations.
-------------------------------------------------------

Exchange 1.	

X                1.100e-03 mol

	                               Equiv-    Equivalent      Log 
	Species             Moles      alents      Fraction     Gamma

	NaX               1.100e-03   1.100e-03   1.000e+00    -0.015

-----------------------------------------
Beginning of batch-reaction calculations.
-----------------------------------------

Reaction step 1.

Using solution 1.	
Using exchange 1.	Exchange assemblage after simulation 1.

-----------------------------Exchange composition------------------------------

X                1.100e-03 mol

	                               Equiv-    Equivalent      Log 
	Species             Moles      alents      Fraction     Gamma

	NaX               1.100e-03   1.100e-03   1.000e+00    -0.015
	NH4X              2.429e-54   2.429e-54   2.208e-51     0.000

-----------------------------Solution composition------------------------------

	Elements           Molality       Moles

	N                 1.000e-03   1.000e-03
	Na                1.000e-03   1.000e-03

----------------------------Description of solution----------------------------

                                       pH  =   7.019      Charge balance
                                       pe  =  12.516      Adjusted to redox equilibrium
      Specific Conductance (µS/cm,  25°C)  = 118
                          Density (g/cm³)  =   0.99710
                               Volume (L)  =   1.00299
                        Activity of water  =   1.000
                 Ionic strength (mol/kgw)  =   1.000e-03
                       Mass of water (kg)  =   1.000e+00
                 Total alkalinity (eq/kg)  =   1.062e-08
                         Temperature (°C)  =  25.00
                  Electrical balance (eq)  =  -1.451e-09
 Percent error, 100*(Cat-|An|)/(Cat+|An|)  =  -0.00
                               Iterations  =  18
                                  Total H  = 1.110124e+02
                                  Total O  = 5.550922e+01

----------------------------Distribution of species----------------------------

                                               Log       Log       Log    mole V
   Species          Molality    Activity  Molality  Activity     Gamma   cm³/mol

   OH-             1.096e-07   1.058e-07    -6.960    -6.976    -0.016     -4.11
   H+              9.900e-08   9.569e-08    -7.004    -7.019    -0.015      0.00
   H2O             5.551e+01   1.000e+00     1.744    -0.000     0.000     18.07
H(0)          0.000e+00
   H2              0.000e+00   0.000e+00   -42.220   -42.220     0.000     28.61
N(-3)         0.000e+00
   NH4+            0.000e+00   0.000e+00   -54.240   -54.256    -0.016     17.96
   NH3             0.000e+00   0.000e+00   -56.481   -56.481     0.000     24.42
N(0)          9.174e-09
   N2              4.587e-09   4.588e-09    -8.338    -8.338     0.000     29.29
N(3)          3.164e-14
   NO2-            3.164e-14   3.052e-14   -13.500   -13.515    -0.016     24.97
N(5)          1.000e-03
   NO3-            1.000e-03   9.646e-04    -3.000    -3.016    -0.016     29.49
Na            1.000e-03
   Na+             1.000e-03   9.652e-04    -3.000    -3.015    -0.015     -1.48
   NaOH            1.021e-20   1.021e-20   -19.991   -19.991     0.000     (0)  
O(0)          2.293e-08
   O2              1.147e-08   1.147e-08    -7.941    -7.940     0.000     30.40

------------------------------Saturation indices-------------------------------

  Phase               SI** log IAP   log K(298 K,   1 atm)

  H2(g)           -39.12    -42.22   -3.10  H2
  H2O(g)           -1.50     -0.00    1.50  H2O
  N2(g)            -5.16     -8.34   -3.18  N2
  NH3(g)          -58.28    -56.48    1.80  NH3
  O2(g)            -5.05     -7.94   -2.89  O2

**For a gas, SI = log10(fugacity). Fugacity = pressure * phi / 1 atm.
  For ideal gases, phi = 1.

------------------
End of simulation.
------------------

------------------------------------
Reading input data for simulation 2.
------------------------------------

	SOLUTION 0		#Solution with 0.6 mmol CaCl2
		Ca	0.6
		Cl	1.2
	TRANSPORT
		cells			10
		length			8e-3		#column length = 10*8e-3 meters
		shifts			30
		time_step		      2523		#flow velocity = 8e-3/2523 = 3.17e-6 m/s
		punch 			10		#graph only the last cell
		flow_direction 		forward
		boundary_conditions 	flux flux
		diffusion_coefficient 	0.0e-9
		dispersivities		0		# 2e-3 for sigmoidal plot 
	USER_GRAPH
WARNING: Cell-lengths were read for 1 cells. Last value is used till cell 10.
WARNING: Dispersivities were read for 1 cells. Last value is used till cell 10.
		-headings PV Na Cl Ca
		-plot_concentration_vs time
		-axis_titles "Pore volumes" "mmol/L"
		-axis_scale x_axis 0 3 1
		-axis_scale y_axis 0 1.4 0.2
		10 graph_x (step_no + 0.5) / cell_no			
		20 graph_y tot("Na")*1e3, tot("Cl")*1e3, tot("Ca")*1e3
	END
-------------------------------------------
Beginning of initial solution calculations.
-------------------------------------------

Initial solution 0.	

-----------------------------Solution composition------------------------------

	Elements           Molality       Moles

	Ca                6.000e-04   6.000e-04
	Cl                1.200e-03   1.200e-03

----------------------------Description of solution----------------------------

                                       pH  =   7.000    
                                       pe  =   4.000    
      Specific Conductance (µS/cm,  25°C)  = 152
                          Density (g/cm³)  =   0.99710
                               Volume (L)  =   1.00298
                        Activity of water  =   1.000
                 Ionic strength (mol/kgw)  =   1.800e-03
                       Mass of water (kg)  =   1.000e+00
                 Total alkalinity (eq/kg)  =   2.477e-09
                         Temperature (°C)  =  25.00
                  Electrical balance (eq)  =  -2.477e-09
 Percent error, 100*(Cat-|An|)/(Cat+|An|)  =  -0.00
                               Iterations  =   4
                                  Total H  = 1.110124e+02
                                  Total O  = 5.550622e+01

----------------------------Distribution of species----------------------------

                                               Log       Log       Log    mole V
   Species          Molality    Activity  Molality  Activity     Gamma   cm³/mol

   OH-             1.061e-07   1.012e-07    -6.974    -6.995    -0.021     -4.10
   H+              1.045e-07   1.000e-07    -6.981    -7.000    -0.019      0.00
   H2O             5.551e+01   1.000e+00     1.744    -0.000     0.000     18.07
Ca            6.000e-04
   Ca+2            6.000e-04   4.983e-04    -3.222    -3.302    -0.081    -18.10
   CaOH+           8.670e-10   8.270e-10    -9.062    -9.082    -0.020     (0)  
Cl            1.200e-03
   Cl-             1.200e-03   1.144e-03    -2.921    -2.941    -0.021     18.08
H(0)          1.415e-25
   H2              7.077e-26   7.079e-26   -25.150   -25.150     0.000     28.61
O(0)          0.000e+00
   O2              0.000e+00   0.000e+00   -42.080   -42.080     0.000     30.40

------------------------------Saturation indices-------------------------------

  Phase               SI** log IAP   log K(298 K,   1 atm)

  H2(g)           -22.05    -25.15   -3.10  H2
  H2O(g)           -1.50     -0.00    1.50  H2O
  O2(g)           -39.19    -42.08   -2.89  O2

**For a gas, SI = log10(fugacity). Fugacity = pressure * phi / 1 atm.
  For ideal gases, phi = 1.

------------------------------------
Beginning of transport calculations.
------------------------------------

-------------------------------
Equilibrating initial solutions
-------------------------------

Using solution 0.	

-----------------------------Solution composition------------------------------

	Elements           Molality       Moles

	Ca                6.000e-04   6.000e-04
	Cl                1.200e-03   1.200e-03

----------------------------Description of solution----------------------------

                                       pH  =   7.000      Charge balance
                                       pe  =   4.000      Adjusted to redox equilibrium
      Specific Conductance (µS/cm,  25°C)  = 152
                          Density (g/cm³)  =   0.99710
                               Volume (L)  =   1.00298
                        Activity of water  =   1.000
                 Ionic strength (mol/kgw)  =   1.800e-03
                       Mass of water (kg)  =   1.000e+00
                 Total alkalinity (eq/kg)  =   2.477e-09
                         Temperature (°C)  =  25.00
                  Electrical balance (eq)  =  -2.477e-09
 Percent error, 100*(Cat-|An|)/(Cat+|An|)  =  -0.00
                               Iterations  =   0 (4 overall)
                                  Total H  = 1.110124e+02
                                  Total O  = 5.550622e+01

----------------------------Distribution of species----------------------------

                                               Log       Log       Log    mole V
   Species          Molality    Activity  Molality  Activity     Gamma   cm³/mol

   OH-             1.061e-07   1.012e-07    -6.974    -6.995    -0.021     -4.10
   H+              1.045e-07   1.000e-07    -6.981    -7.000    -0.019      0.00
   H2O             5.551e+01   1.000e+00     1.744    -0.000     0.000     18.07
Ca            6.000e-04
   Ca+2            6.000e-04   4.983e-04    -3.222    -3.302    -0.081    -18.10
   CaOH+           8.670e-10   8.270e-10    -9.062    -9.082    -0.020     (0)  
Cl            1.200e-03
   Cl-             1.200e-03   1.144e-03    -2.921    -2.941    -0.021     18.08
H(0)          1.415e-25
   H2              7.077e-26   7.079e-26   -25.150   -25.150     0.000     28.61
O(0)          0.000e+00
   O2              0.000e+00   0.000e+00   -42.080   -42.080     0.000     30.40

------------------------------Saturation indices-------------------------------

  Phase               SI** log IAP   log K(298 K,   1 atm)

  H2(g)           -22.05    -25.15   -3.10  H2
  H2O(g)           -1.50     -0.00    1.50  H2O
  O2(g)           -39.19    -42.08   -2.89  O2

**For a gas, SI = log10(fugacity). Fugacity = pressure * phi / 1 atm.
  For ideal gases, phi = 1.

Using solution 1.	
Using exchange 1.	Exchange assemblage after simulation 1.

-----------------------------Exchange composition------------------------------

X                1.100e-03 mol

	                               Equiv-    Equivalent      Log 
	Species             Moles      alents      Fraction     Gamma

	NaX               1.100e-03   1.100e-03   1.000e+00    -0.015
	NH4X              2.429e-54   2.429e-54   2.208e-51     0.000

-----------------------------Solution composition------------------------------

	Elements           Molality       Moles

	N                 1.000e-03   1.000e-03
	Na                1.000e-03   1.000e-03

----------------------------Description of solution----------------------------

                                       pH  =   7.019      Charge balance
                                       pe  =  12.516      Adjusted to redox equilibrium
      Specific Conductance (µS/cm,  25°C)  = 118
                          Density (g/cm³)  =   0.99710
                               Volume (L)  =   1.00299
                        Activity of water  =   1.000
                 Ionic strength (mol/kgw)  =   1.000e-03
                       Mass of water (kg)  =   1.000e+00
                 Total alkalinity (eq/kg)  =   1.062e-08
                         Temperature (°C)  =  25.00
                  Electrical balance (eq)  =  -1.451e-09
 Percent error, 100*(Cat-|An|)/(Cat+|An|)  =  -0.00
                               Iterations  =  18 (22 overall)
                                  Total H  = 1.110124e+02
                                  Total O  = 5.550922e+01

----------------------------Distribution of species----------------------------

                                               Log       Log       Log    mole V
   Species          Molality    Activity  Molality  Activity     Gamma   cm³/mol

   OH-             1.096e-07   1.058e-07    -6.960    -6.976    -0.016     -4.11
   H+              9.900e-08   9.569e-08    -7.004    -7.019    -0.015      0.00
   H2O             5.551e+01   1.000e+00     1.744    -0.000     0.000     18.07
H(0)          0.000e+00
   H2              0.000e+00   0.000e+00   -42.220   -42.220     0.000     28.61
N(-3)         0.000e+00
   NH4+            0.000e+00   0.000e+00   -54.240   -54.256    -0.016     17.96
   NH3             0.000e+00   0.000e+00   -56.481   -56.481     0.000     24.42
N(0)          9.174e-09
   N2              4.587e-09   4.588e-09    -8.338    -8.338     0.000     29.29
N(3)          3.164e-14
   NO2-            3.164e-14   3.052e-14   -13.500   -13.515    -0.016     24.97
N(5)          1.000e-03
   NO3-            1.000e-03   9.646e-04    -3.000    -3.016    -0.016     29.49
Na            1.000e-03
   Na+             1.000e-03   9.652e-04    -3.000    -3.015    -0.015     -1.48
   NaOH            1.021e-20   1.021e-20   -19.991   -19.991     0.000     (0)  
O(0)          2.293e-08
   O2              1.147e-08   1.147e-08    -7.941    -7.940     0.000     30.40

------------------------------Saturation indices-------------------------------

  Phase               SI** log IAP   log K(298 K,   1 atm)

  H2(g)           -39.12    -42.22   -3.10  H2
  H2O(g)           -1.50     -0.00    1.50  H2O
  N2(g)            -5.16     -8.34   -3.18  N2
  NH3(g)          -58.28    -56.48    1.80  NH3
  O2(g)            -5.05     -7.94   -2.89  O2

**For a gas, SI = log10(fugacity). Fugacity = pressure * phi / 1 atm.
  For ideal gases, phi = 1.

Using solution 2.	
Using exchange 2.	Exchange assemblage after simulation 1.

-----------------------------Exchange composition------------------------------

X                1.100e-03 mol

	                               Equiv-    Equivalent      Log 
	Species             Moles      alents      Fraction     Gamma

	NaX               1.100e-03   1.100e-03   1.000e+00    -0.015
	NH4X              2.429e-54   2.429e-54   2.208e-51     0.000

-----------------------------Solution composition------------------------------

	Elements           Molality       Moles

	N                 1.000e-03   1.000e-03
	Na                1.000e-03   1.000e-03

----------------------------Description of solution----------------------------

                                       pH  =   7.019      Charge balance
                                       pe  =  12.516      Adjusted to redox equilibrium
      Specific Conductance (µS/cm,  25°C)  = 118
                          Density (g/cm³)  =   0.99710
                               Volume (L)  =   1.00299
                        Activity of water  =   1.000
                 Ionic strength (mol/kgw)  =   1.000e-03
                       Mass of water (kg)  =   1.000e+00
                 Total alkalinity (eq/kg)  =   1.062e-08
                         Temperature (°C)  =  25.00
                  Electrical balance (eq)  =  -1.451e-09
 Percent error, 100*(Cat-|An|)/(Cat+|An|)  =  -0.00
                               Iterations  =  23 (45 overall)
                                  Total H  = 1.110124e+02
                                  Total O  = 5.550922e+01

----------------------------Distribution of species----------------------------

                                               Log       Log       Log    mole V
   Species          Molality    Activity  Molality  Activity     Gamma   cm³/mol

   OH-             1.096e-07   1.058e-07    -6.960    -6.976    -0.016     -4.11
   H+              9.900e-08   9.569e-08    -7.004    -7.019    -0.015      0.00
   H2O             5.551e+01   1.000e+00     1.744    -0.000     0.000     18.07
H(0)          0.000e+00
   H2              0.000e+00   0.000e+00   -42.220   -42.220     0.000     28.61
N(-3)         0.000e+00
   NH4+            0.000e+00   0.000e+00   -54.240   -54.256    -0.016     17.96
   NH3             0.000e+00   0.000e+00   -56.481   -56.481     0.000     24.42
N(0)          9.174e-09
   N2              4.587e-09   4.588e-09    -8.338    -8.338     0.000     29.29
N(3)          3.164e-14
   NO2-            3.164e-14   3.052e-14   -13.500   -13.515    -0.016     24.97
N(5)          1.000e-03
   NO3-            1.000e-03   9.646e-04    -3.000    -3.016    -0.016     29.49
Na            1.000e-03
   Na+             1.000e-03   9.652e-04    -3.000    -3.015    -0.015     -1.48
   NaOH            1.021e-20   1.021e-20   -19.991   -19.991     0.000     (0)  
O(0)          2.293e-08
   O2              1.147e-08   1.147e-08    -7.941    -7.940     0.000     30.40

------------------------------Saturation indices-------------------------------

  Phase               SI** log IAP   log K(298 K,   1 atm)

  H2(g)           -39.12    -42.22   -3.10  H2
  H2O(g)           -1.50     -0.00    1.50  H2O
  N2(g)            -5.16     -8.34   -3.18  N2
  NH3(g)          -58.28    -56.48    1.80  NH3
  O2(g)            -5.05     -7.94   -2.89  O2

**For a gas, SI = log10(fugacity). Fugacity = pressure * phi / 1 atm.
  For ideal gases, phi = 1.

Using solution 3.	
Using exchange 3.	Exchange assemblage after simulation 1.

-----------------------------Exchange composition------------------------------

X                1.100e-03 mol

	                               Equiv-    Equivalent      Log 
	Species             Moles      alents      Fraction     Gamma

	NaX               1.100e-03   1.100e-03   1.000e+00    -0.015
	NH4X              2.429e-54   2.429e-54   2.208e-51     0.000

-----------------------------Solution composition------------------------------

	Elements           Molality       Moles

	N                 1.000e-03   1.000e-03
	Na                1.000e-03   1.000e-03

----------------------------Description of solution----------------------------

                                       pH  =   7.019      Charge balance
                                       pe  =  12.516      Adjusted to redox equilibrium
      Specific Conductance (µS/cm,  25°C)  = 118
                          Density (g/cm³)  =   0.99710
                               Volume (L)  =   1.00299
                        Activity of water  =   1.000
                 Ionic strength (mol/kgw)  =   1.000e-03
                       Mass of water (kg)  =   1.000e+00
                 Total alkalinity (eq/kg)  =   1.062e-08
                         Temperature (°C)  =  25.00
                  Electrical balance (eq)  =  -1.451e-09
 Percent error, 100*(Cat-|An|)/(Cat+|An|)  =  -0.00
                               Iterations  =  23 (68 overall)
                                  Total H  = 1.110124e+02
                                  Total O  = 5.550922e+01

----------------------------Distribution of species----------------------------

                                               Log       Log       Log    mole V
   Species          Molality    Activity  Molality  Activity     Gamma   cm³/mol

   OH-             1.096e-07   1.058e-07    -6.960    -6.976    -0.016     -4.11
   H+              9.900e-08   9.569e-08    -7.004    -7.019    -0.015      0.00
   H2O             5.551e+01   1.000e+00     1.744    -0.000     0.000     18.07
H(0)          0.000e+00
   H2              0.000e+00   0.000e+00   -42.220   -42.220     0.000     28.61
N(-3)         0.000e+00
   NH4+            0.000e+00   0.000e+00   -54.240   -54.256    -0.016     17.96
   NH3             0.000e+00   0.000e+00   -56.481   -56.481     0.000     24.42
N(0)          9.174e-09
   N2              4.587e-09   4.588e-09    -8.338    -8.338     0.000     29.29
N(3)          3.164e-14
   NO2-            3.164e-14   3.052e-14   -13.500   -13.515    -0.016     24.97
N(5)          1.000e-03
   NO3-            1.000e-03   9.646e-04    -3.000    -3.016    -0.016     29.49
Na            1.000e-03
   Na+             1.000e-03   9.652e-04    -3.000    -3.015    -0.015     -1.48
   NaOH            1.021e-20   1.021e-20   -19.991   -19.991     0.000     (0)  
O(0)          2.293e-08
   O2              1.147e-08   1.147e-08    -7.941    -7.940     0.000     30.40

------------------------------Saturation indices-------------------------------

  Phase               SI** log IAP   log K(298 K,   1 atm)

  H2(g)           -39.12    -42.22   -3.10  H2
  H2O(g)           -1.50     -0.00    1.50  H2O
  N2(g)            -5.16     -8.34   -3.18  N2
  NH3(g)          -58.28    -56.48    1.80  NH3
  O2(g)            -5.05     -7.94   -2.89  O2

**For a gas, SI = log10(fugacity). Fugacity = pressure * phi / 1 atm.
  For ideal gases, phi = 1.

Using solution 4.	
Using exchange 4.	Exchange assemblage after simulation 1.

-----------------------------Exchange composition------------------------------

X                1.100e-03 mol

	                               Equiv-    Equivalent      Log 
	Species             Moles      alents      Fraction     Gamma

	NaX               1.100e-03   1.100e-03   1.000e+00    -0.015
	NH4X              2.429e-54   2.429e-54   2.208e-51     0.000

-----------------------------Solution composition------------------------------

	Elements           Molality       Moles

	N                 1.000e-03   1.000e-03
	Na                1.000e-03   1.000e-03

----------------------------Description of solution----------------------------

                                       pH  =   7.019      Charge balance
                                       pe  =  12.516      Adjusted to redox equilibrium
      Specific Conductance (µS/cm,  25°C)  = 118
                          Density (g/cm³)  =   0.99710
                               Volume (L)  =   1.00299
                        Activity of water  =   1.000
                 Ionic strength (mol/kgw)  =   1.000e-03
                       Mass of water (kg)  =   1.000e+00
                 Total alkalinity (eq/kg)  =   1.062e-08
                         Temperature (°C)  =  25.00
                  Electrical balance (eq)  =  -1.451e-09
 Percent error, 100*(Cat-|An|)/(Cat+|An|)  =  -0.00
                               Iterations  =  23 (91 overall)
                                  Total H  = 1.110124e+02
                                  Total O  = 5.550922e+01

----------------------------Distribution of species----------------------------

                                               Log       Log       Log    mole V
   Species          Molality    Activity  Molality  Activity     Gamma   cm³/mol

   OH-             1.096e-07   1.058e-07    -6.960    -6.976    -0.016     -4.11
   H+              9.900e-08   9.569e-08    -7.004    -7.019    -0.015      0.00
   H2O             5.551e+01   1.000e+00     1.744    -0.000     0.000     18.07
H(0)          0.000e+00
   H2              0.000e+00   0.000e+00   -42.220   -42.220     0.000     28.61
N(-3)         0.000e+00
   NH4+            0.000e+00   0.000e+00   -54.240   -54.256    -0.016     17.96
   NH3             0.000e+00   0.000e+00   -56.481   -56.481     0.000     24.42
N(0)          9.174e-09
   N2              4.587e-09   4.588e-09    -8.338    -8.338     0.000     29.29
N(3)          3.164e-14
   NO2-            3.164e-14   3.052e-14   -13.500   -13.515    -0.016     24.97
N(5)          1.000e-03
   NO3-            1.000e-03   9.646e-04    -3.000    -3.016    -0.016     29.49
Na            1.000e-03
   Na+             1.000e-03   9.652e-04    -3.000    -3.015    -0.015     -1.48
   NaOH            1.021e-20   1.021e-20   -19.991   -19.991     0.000     (0)  
O(0)          2.293e-08
   O2              1.147e-08   1.147e-08    -7.941    -7.940     0.000     30.40

------------------------------Saturation indices-------------------------------

  Phase               SI** log IAP   log K(298 K,   1 atm)

  H2(g)           -39.12    -42.22   -3.10  H2
  H2O(g)           -1.50     -0.00    1.50  H2O
  N2(g)            -5.16     -8.34   -3.18  N2
  NH3(g)          -58.28    -56.48    1.80  NH3
  O2(g)            -5.05     -7.94   -2.89  O2

**For a gas, SI = log10(fugacity). Fugacity = pressure * phi / 1 atm.
  For ideal gases, phi = 1.

Using solution 5.	
Using exchange 5.	Exchange assemblage after simulation 1.

-----------------------------Exchange composition------------------------------

X                1.100e-03 mol

	                               Equiv-    Equivalent      Log 
	Species             Moles      alents      Fraction     Gamma

	NaX               1.100e-03   1.100e-03   1.000e+00    -0.015
	NH4X              2.429e-54   2.429e-54   2.208e-51     0.000

-----------------------------Solution composition------------------------------

	Elements           Molality       Moles

	N                 1.000e-03   1.000e-03
	Na                1.000e-03   1.000e-03

----------------------------Description of solution----------------------------

                                       pH  =   7.019      Charge balance
                                       pe  =  12.516      Adjusted to redox equilibrium
      Specific Conductance (µS/cm,  25°C)  = 118
                          Density (g/cm³)  =   0.99710
                               Volume (L)  =   1.00299
                        Activity of water  =   1.000
                 Ionic strength (mol/kgw)  =   1.000e-03
                       Mass of water (kg)  =   1.000e+00
                 Total alkalinity (eq/kg)  =   1.062e-08
                         Temperature (°C)  =  25.00
                  Electrical balance (eq)  =  -1.451e-09
 Percent error, 100*(Cat-|An|)/(Cat+|An|)  =  -0.00
                               Iterations  =  23 (114 overall)
                                  Total H  = 1.110124e+02
                                  Total O  = 5.550922e+01

----------------------------Distribution of species----------------------------

                                               Log       Log       Log    mole V
   Species          Molality    Activity  Molality  Activity     Gamma   cm³/mol

   OH-             1.096e-07   1.058e-07    -6.960    -6.976    -0.016     -4.11
   H+              9.900e-08   9.569e-08    -7.004    -7.019    -0.015      0.00
   H2O             5.551e+01   1.000e+00     1.744    -0.000     0.000     18.07
H(0)          0.000e+00
   H2              0.000e+00   0.000e+00   -42.220   -42.220     0.000     28.61
N(-3)         0.000e+00
   NH4+            0.000e+00   0.000e+00   -54.240   -54.256    -0.016     17.96
   NH3             0.000e+00   0.000e+00   -56.481   -56.481     0.000     24.42
N(0)          9.174e-09
   N2              4.587e-09   4.588e-09    -8.338    -8.338     0.000     29.29
N(3)          3.164e-14
   NO2-            3.164e-14   3.052e-14   -13.500   -13.515    -0.016     24.97
N(5)          1.000e-03
   NO3-            1.000e-03   9.646e-04    -3.000    -3.016    -0.016     29.49
Na            1.000e-03
   Na+             1.000e-03   9.652e-04    -3.000    -3.015    -0.015     -1.48
   NaOH            1.021e-20   1.021e-20   -19.991   -19.991     0.000     (0)  
O(0)          2.293e-08
   O2              1.147e-08   1.147e-08    -7.941    -7.940     0.000     30.40

------------------------------Saturation indices-------------------------------

  Phase               SI** log IAP   log K(298 K,   1 atm)

  H2(g)           -39.12    -42.22   -3.10  H2
  H2O(g)           -1.50     -0.00    1.50  H2O
  N2(g)            -5.16     -8.34   -3.18  N2
  NH3(g)          -58.28    -56.48    1.80  NH3
  O2(g)            -5.05     -7.94   -2.89  O2

**For a gas, SI = log10(fugacity). Fugacity = pressure * phi / 1 atm.
  For ideal gases, phi = 1.

Using solution 6.	
Using exchange 6.	Exchange assemblage after simulation 1.

-----------------------------Exchange composition------------------------------

X                1.100e-03 mol

	                               Equiv-    Equivalent      Log 
	Species             Moles      alents      Fraction     Gamma

	NaX               1.100e-03   1.100e-03   1.000e+00    -0.015
	NH4X              2.429e-54   2.429e-54   2.208e-51     0.000

-----------------------------Solution composition------------------------------

	Elements           Molality       Moles

	N                 1.000e-03   1.000e-03
	Na                1.000e-03   1.000e-03

----------------------------Description of solution----------------------------

                                       pH  =   7.019      Charge balance
                                       pe  =  12.516      Adjusted to redox equilibrium
      Specific Conductance (µS/cm,  25°C)  = 118
                          Density (g/cm³)  =   0.99710
                               Volume (L)  =   1.00299
                        Activity of water  =   1.000
                 Ionic strength (mol/kgw)  =   1.000e-03
                       Mass of water (kg)  =   1.000e+00
                 Total alkalinity (eq/kg)  =   1.062e-08
                         Temperature (°C)  =  25.00
                  Electrical balance (eq)  =  -1.451e-09
 Percent error, 100*(Cat-|An|)/(Cat+|An|)  =  -0.00
                               Iterations  =  23 (137 overall)
                                  Total H  = 1.110124e+02
                                  Total O  = 5.550922e+01

----------------------------Distribution of species----------------------------

                                               Log       Log       Log    mole V
   Species          Molality    Activity  Molality  Activity     Gamma   cm³/mol

   OH-             1.096e-07   1.058e-07    -6.960    -6.976    -0.016     -4.11
   H+              9.900e-08   9.569e-08    -7.004    -7.019    -0.015      0.00
   H2O             5.551e+01   1.000e+00     1.744    -0.000     0.000     18.07
H(0)          0.000e+00
   H2              0.000e+00   0.000e+00   -42.220   -42.220     0.000     28.61
N(-3)         0.000e+00
   NH4+            0.000e+00   0.000e+00   -54.240   -54.256    -0.016     17.96
   NH3             0.000e+00   0.000e+00   -56.481   -56.481     0.000     24.42
N(0)          9.174e-09
   N2              4.587e-09   4.588e-09    -8.338    -8.338     0.000     29.29
N(3)          3.164e-14
   NO2-            3.164e-14   3.052e-14   -13.500   -13.515    -0.016     24.97
N(5)          1.000e-03
   NO3-            1.000e-03   9.646e-04    -3.000    -3.016    -0.016     29.49
Na            1.000e-03
   Na+             1.000e-03   9.652e-04    -3.000    -3.015    -0.015     -1.48
   NaOH            1.021e-20   1.021e-20   -19.991   -19.991     0.000     (0)  
O(0)          2.293e-08
   O2              1.147e-08   1.147e-08    -7.941    -7.940     0.000     30.40

------------------------------Saturation indices-------------------------------

  Phase               SI** log IAP   log K(298 K,   1 atm)

  H2(g)           -39.12    -42.22   -3.10  H2
  H2O(g)           -1.50     -0.00    1.50  H2O
  N2(g)            -5.16     -8.34   -3.18  N2
  NH3(g)          -58.28    -56.48    1.80  NH3
  O2(g)            -5.05     -7.94   -2.89  O2

**For a gas, SI = log10(fugacity). Fugacity = pressure * phi / 1 atm.
  For ideal gases, phi = 1.

Using solution 7.	
Using exchange 7.	Exchange assemblage after simulation 1.

-----------------------------Exchange composition------------------------------

X                1.100e-03 mol

	                               Equiv-    Equivalent      Log 
	Species             Moles      alents      Fraction     Gamma

	NaX               1.100e-03   1.100e-03   1.000e+00    -0.015
	NH4X              2.429e-54   2.429e-54   2.208e-51     0.000

-----------------------------Solution composition------------------------------

	Elements           Molality       Moles

	N                 1.000e-03   1.000e-03
	Na                1.000e-03   1.000e-03

----------------------------Description of solution----------------------------

                                       pH  =   7.019      Charge balance
                                       pe  =  12.516      Adjusted to redox equilibrium
      Specific Conductance (µS/cm,  25°C)  = 118
                          Density (g/cm³)  =   0.99710
                               Volume (L)  =   1.00299
                        Activity of water  =   1.000
                 Ionic strength (mol/kgw)  =   1.000e-03
                       Mass of water (kg)  =   1.000e+00
                 Total alkalinity (eq/kg)  =   1.062e-08
                         Temperature (°C)  =  25.00
                  Electrical balance (eq)  =  -1.451e-09
 Percent error, 100*(Cat-|An|)/(Cat+|An|)  =  -0.00
                               Iterations  =  23 (160 overall)
                                  Total H  = 1.110124e+02
                                  Total O  = 5.550922e+01

----------------------------Distribution of species----------------------------

                                               Log       Log       Log    mole V
   Species          Molality    Activity  Molality  Activity     Gamma   cm³/mol

   OH-             1.096e-07   1.058e-07    -6.960    -6.976    -0.016     -4.11
   H+              9.900e-08   9.569e-08    -7.004    -7.019    -0.015      0.00
   H2O             5.551e+01   1.000e+00     1.744    -0.000     0.000     18.07
H(0)          0.000e+00
   H2              0.000e+00   0.000e+00   -42.220   -42.220     0.000     28.61
N(-3)         0.000e+00
   NH4+            0.000e+00   0.000e+00   -54.240   -54.256    -0.016     17.96
   NH3             0.000e+00   0.000e+00   -56.481   -56.481     0.000     24.42
N(0)          9.174e-09
   N2              4.587e-09   4.588e-09    -8.338    -8.338     0.000     29.29
N(3)          3.164e-14
   NO2-            3.164e-14   3.052e-14   -13.500   -13.515    -0.016     24.97
N(5)          1.000e-03
   NO3-            1.000e-03   9.646e-04    -3.000    -3.016    -0.016     29.49
Na            1.000e-03
   Na+             1.000e-03   9.652e-04    -3.000    -3.015    -0.015     -1.48
   NaOH            1.021e-20   1.021e-20   -19.991   -19.991     0.000     (0)  
O(0)          2.293e-08
   O2              1.147e-08   1.147e-08    -7.941    -7.940     0.000     30.40

------------------------------Saturation indices-------------------------------

  Phase               SI** log IAP   log K(298 K,   1 atm)

  H2(g)           -39.12    -42.22   -3.10  H2
  H2O(g)           -1.50     -0.00    1.50  H2O
  N2(g)            -5.16     -8.34   -3.18  N2
  NH3(g)          -58.28    -56.48    1.80  NH3
  O2(g)            -5.05     -7.94   -2.89  O2

**For a gas, SI = log10(fugacity). Fugacity = pressure * phi / 1 atm.
  For ideal gases, phi = 1.

Using solution 8.	
Using exchange 8.	Exchange assemblage after simulation 1.

-----------------------------Exchange composition------------------------------

X                1.100e-03 mol

	                               Equiv-    Equivalent      Log 
	Species             Moles      alents      Fraction     Gamma

	NaX               1.100e-03   1.100e-03   1.000e+00    -0.015
	NH4X              2.429e-54   2.429e-54   2.208e-51     0.000

-----------------------------Solution composition------------------------------

	Elements           Molality       Moles

	N                 1.000e-03   1.000e-03
	Na                1.000e-03   1.000e-03

----------------------------Description of solution----------------------------

                                       pH  =   7.019      Charge balance
                                       pe  =  12.516      Adjusted to redox equilibrium
      Specific Conductance (µS/cm,  25°C)  = 118
                          Density (g/cm³)  =   0.99710
                               Volume (L)  =   1.00299
                        Activity of water  =   1.000
                 Ionic strength (mol/kgw)  =   1.000e-03
                       Mass of water (kg)  =   1.000e+00
                 Total alkalinity (eq/kg)  =   1.062e-08
                         Temperature (°C)  =  25.00
                  Electrical balance (eq)  =  -1.451e-09
 Percent error, 100*(Cat-|An|)/(Cat+|An|)  =  -0.00
                               Iterations  =  23 (183 overall)
                                  Total H  = 1.110124e+02
                                  Total O  = 5.550922e+01

----------------------------Distribution of species----------------------------

                                               Log       Log       Log    mole V
   Species          Molality    Activity  Molality  Activity     Gamma   cm³/mol

   OH-             1.096e-07   1.058e-07    -6.960    -6.976    -0.016     -4.11
   H+              9.900e-08   9.569e-08    -7.004    -7.019    -0.015      0.00
   H2O             5.551e+01   1.000e+00     1.744    -0.000     0.000     18.07
H(0)          0.000e+00
   H2              0.000e+00   0.000e+00   -42.220   -42.220     0.000     28.61
N(-3)         0.000e+00
   NH4+            0.000e+00   0.000e+00   -54.240   -54.256    -0.016     17.96
   NH3             0.000e+00   0.000e+00   -56.481   -56.481     0.000     24.42
N(0)          9.174e-09
   N2              4.587e-09   4.588e-09    -8.338    -8.338     0.000     29.29
N(3)          3.164e-14
   NO2-            3.164e-14   3.052e-14   -13.500   -13.515    -0.016     24.97
N(5)          1.000e-03
   NO3-            1.000e-03   9.646e-04    -3.000    -3.016    -0.016     29.49
Na            1.000e-03
   Na+             1.000e-03   9.652e-04    -3.000    -3.015    -0.015     -1.48
   NaOH            1.021e-20   1.021e-20   -19.991   -19.991     0.000     (0)  
O(0)          2.293e-08
   O2              1.147e-08   1.147e-08    -7.941    -7.940     0.000     30.40

------------------------------Saturation indices-------------------------------

  Phase               SI** log IAP   log K(298 K,   1 atm)

  H2(g)           -39.12    -42.22   -3.10  H2
  H2O(g)           -1.50     -0.00    1.50  H2O
  N2(g)            -5.16     -8.34   -3.18  N2
  NH3(g)          -58.28    -56.48    1.80  NH3
  O2(g)            -5.05     -7.94   -2.89  O2

**For a gas, SI = log10(fugacity). Fugacity = pressure * phi / 1 atm.
  For ideal gases, phi = 1.

Using solution 9.	
Using exchange 9.	Exchange assemblage after simulation 1.

-----------------------------Exchange composition------------------------------

X                1.100e-03 mol

	                               Equiv-    Equivalent      Log 
	Species             Moles      alents      Fraction     Gamma

	NaX               1.100e-03   1.100e-03   1.000e+00    -0.015
	NH4X              2.429e-54   2.429e-54   2.208e-51     0.000

-----------------------------Solution composition------------------------------

	Elements           Molality       Moles

	N                 1.000e-03   1.000e-03
	Na                1.000e-03   1.000e-03

----------------------------Description of solution----------------------------

                                       pH  =   7.019      Charge balance
                                       pe  =  12.516      Adjusted to redox equilibrium
      Specific Conductance (µS/cm,  25°C)  = 118
                          Density (g/cm³)  =   0.99710
                               Volume (L)  =   1.00299
                        Activity of water  =   1.000
                 Ionic strength (mol/kgw)  =   1.000e-03
                       Mass of water (kg)  =   1.000e+00
                 Total alkalinity (eq/kg)  =   1.062e-08
                         Temperature (°C)  =  25.00
                  Electrical balance (eq)  =  -1.451e-09
 Percent error, 100*(Cat-|An|)/(Cat+|An|)  =  -0.00
                               Iterations  =  23 (206 overall)
                                  Total H  = 1.110124e+02
                                  Total O  = 5.550922e+01

----------------------------Distribution of species----------------------------

                                               Log       Log       Log    mole V
   Species          Molality    Activity  Molality  Activity     Gamma   cm³/mol

   OH-             1.096e-07   1.058e-07    -6.960    -6.976    -0.016     -4.11
   H+              9.900e-08   9.569e-08    -7.004    -7.019    -0.015      0.00
   H2O             5.551e+01   1.000e+00     1.744    -0.000     0.000     18.07
H(0)          0.000e+00
   H2              0.000e+00   0.000e+00   -42.220   -42.220     0.000     28.61
N(-3)         0.000e+00
   NH4+            0.000e+00   0.000e+00   -54.240   -54.256    -0.016     17.96
   NH3             0.000e+00   0.000e+00   -56.481   -56.481     0.000     24.42
N(0)          9.174e-09
   N2              4.587e-09   4.588e-09    -8.338    -8.338     0.000     29.29
N(3)          3.164e-14
   NO2-            3.164e-14   3.052e-14   -13.500   -13.515    -0.016     24.97
N(5)          1.000e-03
   NO3-            1.000e-03   9.646e-04    -3.000    -3.016    -0.016     29.49
Na            1.000e-03
   Na+             1.000e-03   9.652e-04    -3.000    -3.015    -0.015     -1.48
   NaOH            1.021e-20   1.021e-20   -19.991   -19.991     0.000     (0)  
O(0)          2.293e-08
   O2              1.147e-08   1.147e-08    -7.941    -7.940     0.000     30.40

------------------------------Saturation indices-------------------------------

  Phase               SI** log IAP   log K(298 K,   1 atm)

  H2(g)           -39.12    -42.22   -3.10  H2
  H2O(g)           -1.50     -0.00    1.50  H2O
  N2(g)            -5.16     -8.34   -3.18  N2
  NH3(g)          -58.28    -56.48    1.80  NH3
  O2(g)            -5.05     -7.94   -2.89  O2

**For a gas, SI = log10(fugacity). Fugacity = pressure * phi / 1 atm.
  For ideal gases, phi = 1.

Using solution 10.	
Using exchange 10.	Exchange assemblage after simulation 1.

-----------------------------Exchange composition------------------------------

X                1.100e-03 mol

	                               Equiv-    Equivalent      Log 
	Species             Moles      alents      Fraction     Gamma

	NaX               1.100e-03   1.100e-03   1.000e+00    -0.015
	NH4X              2.429e-54   2.429e-54   2.208e-51     0.000

-----------------------------Solution composition------------------------------

	Elements           Molality       Moles

	N                 1.000e-03   1.000e-03
	Na                1.000e-03   1.000e-03

----------------------------Description of solution----------------------------

                                       pH  =   7.019      Charge balance
                                       pe  =  12.516      Adjusted to redox equilibrium
      Specific Conductance (µS/cm,  25°C)  = 118
                          Density (g/cm³)  =   0.99710
                               Volume (L)  =   1.00299
                        Activity of water  =   1.000
                 Ionic strength (mol/kgw)  =   1.000e-03
                       Mass of water (kg)  =   1.000e+00
                 Total alkalinity (eq/kg)  =   1.062e-08
                         Temperature (°C)  =  25.00
                  Electrical balance (eq)  =  -1.451e-09
 Percent error, 100*(Cat-|An|)/(Cat+|An|)  =  -0.00
                               Iterations  =  23 (229 overall)
                                  Total H  = 1.110124e+02
                                  Total O  = 5.550922e+01

----------------------------Distribution of species----------------------------

                                               Log       Log       Log    mole V
   Species          Molality    Activity  Molality  Activity     Gamma   cm³/mol

   OH-             1.096e-07   1.058e-07    -6.960    -6.976    -0.016     -4.11
   H+              9.900e-08   9.569e-08    -7.004    -7.019    -0.015      0.00
   H2O             5.551e+01   1.000e+00     1.744    -0.000     0.000     18.07
H(0)          0.000e+00
   H2              0.000e+00   0.000e+00   -42.220   -42.220     0.000     28.61
N(-3)         0.000e+00
   NH4+            0.000e+00   0.000e+00   -54.240   -54.256    -0.016     17.96
   NH3             0.000e+00   0.000e+00   -56.481   -56.481     0.000     24.42
N(0)          9.174e-09
   N2              4.587e-09   4.588e-09    -8.338    -8.338     0.000     29.29
N(3)          3.164e-14
   NO2-            3.164e-14   3.052e-14   -13.500   -13.515    -0.016     24.97
N(5)          1.000e-03
   NO3-            1.000e-03   9.646e-04    -3.000    -3.016    -0.016     29.49
Na            1.000e-03
   Na+             1.000e-03   9.652e-04    -3.000    -3.015    -0.015     -1.48
   NaOH            1.021e-20   1.021e-20   -19.991   -19.991     0.000     (0)  
O(0)          2.293e-08
   O2              1.147e-08   1.147e-08    -7.941    -7.940     0.000     30.40

------------------------------Saturation indices-------------------------------

  Phase               SI** log IAP   log K(298 K,   1 atm)

  H2(g)           -39.12    -42.22   -3.10  H2
  H2O(g)           -1.50     -0.00    1.50  H2O
  N2(g)            -5.16     -8.34   -3.18  N2
  NH3(g)          -58.28    -56.48    1.80  NH3
  O2(g)            -5.05     -7.94   -2.89  O2

**For a gas, SI = log10(fugacity). Fugacity = pressure * phi / 1 atm.
  For ideal gases, phi = 1.

Using solution 11.	

-----------------------------Solution composition------------------------------

	Elements           Molality       Moles

	N                 1.000e-03   1.000e-03
	Na                1.000e-03   1.000e-03

----------------------------Description of solution----------------------------

                                       pH  =   7.019      Charge balance
                                       pe  =  12.516      Adjusted to redox equilibrium
      Specific Conductance (µS/cm,  25°C)  = 118
                          Density (g/cm³)  =   0.99710
                               Volume (L)  =   1.00299
                        Activity of water  =   1.000
                 Ionic strength (mol/kgw)  =   1.000e-03
                       Mass of water (kg)  =   1.000e+00
                 Total alkalinity (eq/kg)  =   1.062e-08
                         Temperature (°C)  =  25.00
                  Electrical balance (eq)  =  -1.459e-09
 Percent error, 100*(Cat-|An|)/(Cat+|An|)  =  -0.00
                               Iterations  =  20 (249 overall)
                                  Total H  = 1.110124e+02
                                  Total O  = 5.550922e+01

----------------------------Distribution of species----------------------------

                                               Log       Log       Log    mole V
   Species          Molality    Activity  Molality  Activity     Gamma   cm³/mol

   OH-             1.096e-07   1.058e-07    -6.960    -6.976    -0.016     -4.11
   H+              9.900e-08   9.569e-08    -7.004    -7.019    -0.015      0.00
   H2O             5.551e+01   1.000e+00     1.744    -0.000     0.000     18.07
H(0)          0.000e+00
   H2              0.000e+00   0.000e+00   -42.220   -42.220     0.000     28.61
N(-3)         0.000e+00
   NH4+            0.000e+00   0.000e+00   -54.240   -54.256    -0.016     17.96
   NH3             0.000e+00   0.000e+00   -56.481   -56.481     0.000     24.42
N(0)          9.174e-09
   N2              4.587e-09   4.588e-09    -8.338    -8.338     0.000     29.29
N(3)          3.164e-14
   NO2-            3.164e-14   3.052e-14   -13.500   -13.515    -0.016     24.97
N(5)          1.000e-03
   NO3-            1.000e-03   9.646e-04    -3.000    -3.016    -0.016     29.49
Na            1.000e-03
   Na+             1.000e-03   9.652e-04    -3.000    -3.015    -0.015     -1.48
   NaOH            1.021e-20   1.021e-20   -19.991   -19.991     0.000     (0)  
O(0)          2.293e-08
   O2              1.147e-08   1.147e-08    -7.941    -7.940     0.000     30.40

------------------------------Saturation indices-------------------------------

  Phase               SI** log IAP   log K(298 K,   1 atm)

  H2(g)           -39.12    -42.22   -3.10  H2
  H2O(g)           -1.50     -0.00    1.50  H2O
  N2(g)            -5.16     -8.34   -3.18  N2
  NH3(g)          -58.28    -56.48    1.80  NH3
  O2(g)            -5.05     -7.94   -2.89  O2

**For a gas, SI = log10(fugacity). Fugacity = pressure * phi / 1 atm.
  For ideal gases, phi = 1.

Transport step   1.

Using solution 1.	Solution after simulation 2.
Using exchange 1.	Exchange assemblage after simulation 2.

-----------------------------Exchange composition------------------------------

X                1.100e-03 mol

	                               Equiv-    Equivalent      Log 
	Species             Moles      alents      Fraction     Gamma

	CaX2              5.242e-04   1.048e-03   9.532e-01    -0.069
	NaX               5.150e-05   5.150e-05   4.682e-02    -0.017

-----------------------------Solution composition------------------------------

	Elements           Molality       Moles

	Ca                7.575e-05   7.575e-05
	Cl                1.200e-03   1.200e-03
	Na                1.048e-03   1.048e-03

----------------------------Description of solution----------------------------

                                       pH  =   7.002      Charge balance
                                       pe  =  11.548      Adjusted to redox equilibrium
      Specific Conductance (µS/cm,  25°C)  = 148
                          Density (g/cm³)  =   0.99709
                               Volume (L)  =   1.00298
                        Activity of water  =   1.000
                 Ionic strength (mol/kgw)  =   1.276e-03
                       Mass of water (kg)  =   1.000e+00
                 Total alkalinity (eq/kg)  =   2.477e-09
                         Temperature (°C)  =  25.00
                  Electrical balance (eq)  =  -2.474e-09
 Percent error, 100*(Cat-|An|)/(Cat+|An|)  =  -0.00
                               Iterations  =  11
                                  Total H  = 1.110124e+02
                                  Total O  = 5.550622e+01

----------------------------Distribution of species----------------------------

                                               Log       Log       Log    mole V
   Species          Molality    Activity  Molality  Activity     Gamma   cm³/mol

   OH-             1.058e-07   1.016e-07    -6.975    -6.993    -0.017     -4.10
   H+              1.034e-07   9.959e-08    -6.985    -7.002    -0.016      0.00
   H2O             5.551e+01   1.000e+00     1.744    -0.000     0.000     18.07
Ca            7.575e-05
   Ca+2            7.575e-05   6.468e-05    -4.121    -4.189    -0.069    -18.13
   CaOH+           1.122e-10   1.078e-10    -9.950    -9.967    -0.017     (0)  
Cl            1.200e-03
   Cl-             1.200e-03   1.153e-03    -2.921    -2.938    -0.017     18.08
H(0)          0.000e+00
   H2              0.000e+00   0.000e+00   -40.249   -40.249     0.000     28.61
Na            1.048e-03
   Na+             1.048e-03   1.008e-03    -2.979    -2.997    -0.017     -1.47
   NaOH            1.024e-20   1.024e-20   -19.990   -19.990     0.000     (0)  
O(0)          2.627e-12
   O2              1.314e-12   1.314e-12   -11.882   -11.881     0.000     30.40

------------------------------Saturation indices-------------------------------

  Phase               SI** log IAP   log K(298 K,   1 atm)

  H2(g)           -37.15    -40.25   -3.10  H2
  H2O(g)           -1.50     -0.00    1.50  H2O
  Halite           -7.50     -5.93    1.57  NaCl
  O2(g)            -8.99    -11.88   -2.89  O2

**For a gas, SI = log10(fugacity). Fugacity = pressure * phi / 1 atm.
  For ideal gases, phi = 1.

Using solution 2.	Solution after simulation 2.
Using exchange 2.	Exchange assemblage after simulation 2.

-----------------------------Exchange composition------------------------------

X                1.100e-03 mol

	                               Equiv-    Equivalent      Log 
	Species             Moles      alents      Fraction     Gamma

	NaX               1.100e-03   1.100e-03   1.000e+00    -0.015
	NH4X              2.518e-54   2.518e-54   2.289e-51    -0.016

-----------------------------Solution composition------------------------------

	Elements           Molality       Moles

	N                 1.000e-03   1.000e-03
	Na                1.000e-03   1.000e-03

----------------------------Description of solution----------------------------

                                       pH  =   7.019      Charge balance
                                       pe  =  12.516      Adjusted to redox equilibrium
      Specific Conductance (µS/cm,  25°C)  = 118
                          Density (g/cm³)  =   0.99710
                               Volume (L)  =   1.00299
                        Activity of water  =   1.000
                 Ionic strength (mol/kgw)  =   1.000e-03
                       Mass of water (kg)  =   1.000e+00
                 Total alkalinity (eq/kg)  =   1.062e-08
                         Temperature (°C)  =  25.00
                  Electrical balance (eq)  =  -1.451e-09
 Percent error, 100*(Cat-|An|)/(Cat+|An|)  =  -0.00
                               Iterations  =   1
                                  Total H  = 1.110124e+02
                                  Total O  = 5.550922e+01

----------------------------Distribution of species----------------------------

                                               Log       Log       Log    mole V
   Species          Molality    Activity  Molality  Activity     Gamma   cm³/mol

   OH-             1.096e-07   1.058e-07    -6.960    -6.976    -0.016     -4.11
   H+              9.900e-08   9.569e-08    -7.004    -7.019    -0.015      0.00
   H2O             5.551e+01   1.000e+00     1.744    -0.000     0.000     18.07
H(0)          0.000e+00
   H2              0.000e+00   0.000e+00   -42.220   -42.220     0.000     28.61
N(-3)         0.000e+00
   NH4+            0.000e+00   0.000e+00   -54.240   -54.256    -0.016     17.96
   NH3             0.000e+00   0.000e+00   -56.481   -56.481     0.000     24.42
N(0)          9.174e-09
   N2              4.587e-09   4.588e-09    -8.338    -8.338     0.000     29.29
N(3)          3.164e-14
   NO2-            3.164e-14   3.052e-14   -13.500   -13.515    -0.016     24.97
N(5)          1.000e-03
   NO3-            1.000e-03   9.646e-04    -3.000    -3.016    -0.016     29.49
Na            1.000e-03
   Na+             1.000e-03   9.652e-04    -3.000    -3.015    -0.015     -1.48
   NaOH            1.021e-20   1.021e-20   -19.991   -19.991     0.000     (0)  
O(0)          2.293e-08
   O2              1.147e-08   1.147e-08    -7.941    -7.940     0.000     30.40

------------------------------Saturation indices-------------------------------

  Phase               SI** log IAP   log K(298 K,   1 atm)

  H2(g)           -39.12    -42.22   -3.10  H2
  H2O(g)           -1.50     -0.00    1.50  H2O
  N2(g)            -5.16     -8.34   -3.18  N2
  NH3(g)          -58.28    -56.48    1.80  NH3
  O2(g)            -5.05     -7.94   -2.89  O2

**For a gas, SI = log10(fugacity). Fugacity = pressure * phi / 1 atm.
  For ideal gases, phi = 1.

Using solution 3.	Solution after simulation 2.
Using exchange 3.	Exchange assemblage after simulation 2.

-----------------------------Exchange composition------------------------------

X                1.100e-03 mol

	                               Equiv-    Equivalent      Log 
	Species             Moles      alents      Fraction     Gamma

	NaX               1.100e-03   1.100e-03   1.000e+00    -0.015
	NH4X              2.518e-54   2.518e-54   2.289e-51    -0.016

-----------------------------Solution composition------------------------------

	Elements           Molality       Moles

	N                 1.000e-03   1.000e-03
	Na                1.000e-03   1.000e-03

----------------------------Description of solution----------------------------

                                       pH  =   7.019      Charge balance
                                       pe  =  12.516      Adjusted to redox equilibrium
      Specific Conductance (µS/cm,  25°C)  = 118
                          Density (g/cm³)  =   0.99710
                               Volume (L)  =   1.00299
                        Activity of water  =   1.000
                 Ionic strength (mol/kgw)  =   1.000e-03
                       Mass of water (kg)  =   1.000e+00
                 Total alkalinity (eq/kg)  =   1.062e-08
                         Temperature (°C)  =  25.00
                  Electrical balance (eq)  =  -1.451e-09
 Percent error, 100*(Cat-|An|)/(Cat+|An|)  =  -0.00
                               Iterations  =   1
                                  Total H  = 1.110124e+02
                                  Total O  = 5.550922e+01

----------------------------Distribution of species----------------------------

                                               Log       Log       Log    mole V
   Species          Molality    Activity  Molality  Activity     Gamma   cm³/mol

   OH-             1.096e-07   1.058e-07    -6.960    -6.976    -0.016     -4.11
   H+              9.900e-08   9.569e-08    -7.004    -7.019    -0.015      0.00
   H2O             5.551e+01   1.000e+00     1.744    -0.000     0.000     18.07
H(0)          0.000e+00
   H2              0.000e+00   0.000e+00   -42.220   -42.220     0.000     28.61
N(-3)         0.000e+00
   NH4+            0.000e+00   0.000e+00   -54.240   -54.256    -0.016     17.96
   NH3             0.000e+00   0.000e+00   -56.481   -56.481     0.000     24.42
N(0)          9.174e-09
   N2              4.587e-09   4.588e-09    -8.338    -8.338     0.000     29.29
N(3)          3.164e-14
   NO2-            3.164e-14   3.052e-14   -13.500   -13.515    -0.016     24.97
N(5)          1.000e-03
   NO3-            1.000e-03   9.646e-04    -3.000    -3.016    -0.016     29.49
Na            1.000e-03
   Na+             1.000e-03   9.652e-04    -3.000    -3.015    -0.015     -1.48
   NaOH            1.021e-20   1.021e-20   -19.991   -19.991     0.000     (0)  
O(0)          2.293e-08
   O2              1.147e-08   1.147e-08    -7.941    -7.940     0.000     30.40

------------------------------Saturation indices-------------------------------

  Phase               SI** log IAP   log K(298 K,   1 atm)

  H2(g)           -39.12    -42.22   -3.10  H2
  H2O(g)           -1.50     -0.00    1.50  H2O
  N2(g)            -5.16     -8.34   -3.18  N2
  NH3(g)          -58.28    -56.48    1.80  NH3
  O2(g)            -5.05     -7.94   -2.89  O2

**For a gas, SI = log10(fugacity). Fugacity = pressure * phi / 1 atm.
  For ideal gases, phi = 1.

Using solution 4.	Solution after simulation 2.
Using exchange 4.	Exchange assemblage after simulation 2.

-----------------------------Exchange composition------------------------------

X                1.100e-03 mol

	                               Equiv-    Equivalent      Log 
	Species             Moles      alents      Fraction     Gamma

	NaX               1.100e-03   1.100e-03   1.000e+00    -0.015
	NH4X              2.518e-54   2.518e-54   2.289e-51    -0.016

-----------------------------Solution composition------------------------------

	Elements           Molality       Moles

	N                 1.000e-03   1.000e-03
	Na                1.000e-03   1.000e-03

----------------------------Description of solution----------------------------

                                       pH  =   7.019      Charge balance
                                       pe  =  12.516      Adjusted to redox equilibrium
      Specific Conductance (µS/cm,  25°C)  = 118
                          Density (g/cm³)  =   0.99710
                               Volume (L)  =   1.00299
                        Activity of water  =   1.000
                 Ionic strength (mol/kgw)  =   1.000e-03
                       Mass of water (kg)  =   1.000e+00
                 Total alkalinity (eq/kg)  =   1.062e-08
                         Temperature (°C)  =  25.00
                  Electrical balance (eq)  =  -1.451e-09
 Percent error, 100*(Cat-|An|)/(Cat+|An|)  =  -0.00
                               Iterations  =   1
                                  Total H  = 1.110124e+02
                                  Total O  = 5.550922e+01

----------------------------Distribution of species----------------------------

                                               Log       Log       Log    mole V
   Species          Molality    Activity  Molality  Activity     Gamma   cm³/mol

   OH-             1.096e-07   1.058e-07    -6.960    -6.976    -0.016     -4.11
   H+              9.900e-08   9.569e-08    -7.004    -7.019    -0.015      0.00
   H2O             5.551e+01   1.000e+00     1.744    -0.000     0.000     18.07
H(0)          0.000e+00
   H2              0.000e+00   0.000e+00   -42.220   -42.220     0.000     28.61
N(-3)         0.000e+00
   NH4+            0.000e+00   0.000e+00   -54.240   -54.256    -0.016     17.96
   NH3             0.000e+00   0.000e+00   -56.481   -56.481     0.000     24.42
N(0)          9.174e-09
   N2              4.587e-09   4.588e-09    -8.338    -8.338     0.000     29.29
N(3)          3.164e-14
   NO2-            3.164e-14   3.052e-14   -13.500   -13.515    -0.016     24.97
N(5)          1.000e-03
   NO3-            1.000e-03   9.646e-04    -3.000    -3.016    -0.016     29.49
Na            1.000e-03
   Na+             1.000e-03   9.652e-04    -3.000    -3.015    -0.015     -1.48
   NaOH            1.021e-20   1.021e-20   -19.991   -19.991     0.000     (0)  
O(0)          2.293e-08
   O2              1.147e-08   1.147e-08    -7.941    -7.940     0.000     30.40

------------------------------Saturation indices-------------------------------

  Phase               SI** log IAP   log K(298 K,   1 atm)

  H2(g)           -39.12    -42.22   -3.10  H2
  H2O(g)           -1.50     -0.00    1.50  H2O
  N2(g)            -5.16     -8.34   -3.18  N2
  NH3(g)          -58.28    -56.48    1.80  NH3
  O2(g)            -5.05     -7.94   -2.89  O2

**For a gas, SI = log10(fugacity). Fugacity = pressure * phi / 1 atm.
  For ideal gases, phi = 1.

Using solution 5.	Solution after simulation 2.
Using exchange 5.	Exchange assemblage after simulation 2.

-----------------------------Exchange composition------------------------------

X                1.100e-03 mol

	                               Equiv-    Equivalent      Log 
	Species             Moles      alents      Fraction     Gamma

	NaX               1.100e-03   1.100e-03   1.000e+00    -0.015
	NH4X              2.518e-54   2.518e-54   2.289e-51    -0.016

-----------------------------Solution composition------------------------------

	Elements           Molality       Moles

	N                 1.000e-03   1.000e-03
	Na                1.000e-03   1.000e-03

----------------------------Description of solution----------------------------

                                       pH  =   7.019      Charge balance
                                       pe  =  12.516      Adjusted to redox equilibrium
      Specific Conductance (µS/cm,  25°C)  = 118
                          Density (g/cm³)  =   0.99710
                               Volume (L)  =   1.00299
                        Activity of water  =   1.000
                 Ionic strength (mol/kgw)  =   1.000e-03
                       Mass of water (kg)  =   1.000e+00
                 Total alkalinity (eq/kg)  =   1.062e-08
                         Temperature (°C)  =  25.00
                  Electrical balance (eq)  =  -1.451e-09
 Percent error, 100*(Cat-|An|)/(Cat+|An|)  =  -0.00
                               Iterations  =   1
                                  Total H  = 1.110124e+02
                                  Total O  = 5.550922e+01

----------------------------Distribution of species----------------------------

                                               Log       Log       Log    mole V
   Species          Molality    Activity  Molality  Activity     Gamma   cm³/mol

   OH-             1.096e-07   1.058e-07    -6.960    -6.976    -0.016     -4.11
   H+              9.900e-08   9.569e-08    -7.004    -7.019    -0.015      0.00
   H2O             5.551e+01   1.000e+00     1.744    -0.000     0.000     18.07
H(0)          0.000e+00
   H2              0.000e+00   0.000e+00   -42.220   -42.220     0.000     28.61
N(-3)         0.000e+00
   NH4+            0.000e+00   0.000e+00   -54.240   -54.256    -0.016     17.96
   NH3             0.000e+00   0.000e+00   -56.481   -56.481     0.000     24.42
N(0)          9.174e-09
   N2              4.587e-09   4.588e-09    -8.338    -8.338     0.000     29.29
N(3)          3.164e-14
   NO2-            3.164e-14   3.052e-14   -13.500   -13.515    -0.016     24.97
N(5)          1.000e-03
   NO3-            1.000e-03   9.646e-04    -3.000    -3.016    -0.016     29.49
Na            1.000e-03
   Na+             1.000e-03   9.652e-04    -3.000    -3.015    -0.015     -1.48
   NaOH            1.021e-20   1.021e-20   -19.991   -19.991     0.000     (0)  
O(0)          2.293e-08
   O2              1.147e-08   1.147e-08    -7.941    -7.940     0.000     30.40

------------------------------Saturation indices-------------------------------

  Phase               SI** log IAP   log K(298 K,   1 atm)

  H2(g)           -39.12    -42.22   -3.10  H2
  H2O(g)           -1.50     -0.00    1.50  H2O
  N2(g)            -5.16     -8.34   -3.18  N2
  NH3(g)          -58.28    -56.48    1.80  NH3
  O2(g)            -5.05     -7.94   -2.89  O2

**For a gas, SI = log10(fugacity). Fugacity = pressure * phi / 1 atm.
  For ideal gases, phi = 1.

Using solution 6.	Solution after simulation 2.
Using exchange 6.	Exchange assemblage after simulation 2.

-----------------------------Exchange composition------------------------------

X                1.100e-03 mol

	                               Equiv-    Equivalent      Log 
	Species             Moles      alents      Fraction     Gamma

	NaX               1.100e-03   1.100e-03   1.000e+00    -0.015
	NH4X              2.518e-54   2.518e-54   2.289e-51    -0.016

-----------------------------Solution composition------------------------------

	Elements           Molality       Moles

	N                 1.000e-03   1.000e-03
	Na                1.000e-03   1.000e-03

----------------------------Description of solution----------------------------

                                       pH  =   7.019      Charge balance
                                       pe  =  12.516      Adjusted to redox equilibrium
      Specific Conductance (µS/cm,  25°C)  = 118
                          Density (g/cm³)  =   0.99710
                               Volume (L)  =   1.00299
                        Activity of water  =   1.000
                 Ionic strength (mol/kgw)  =   1.000e-03
                       Mass of water (kg)  =   1.000e+00
                 Total alkalinity (eq/kg)  =   1.062e-08
                         Temperature (°C)  =  25.00
                  Electrical balance (eq)  =  -1.451e-09
 Percent error, 100*(Cat-|An|)/(Cat+|An|)  =  -0.00
                               Iterations  =   1
                                  Total H  = 1.110124e+02
                                  Total O  = 5.550922e+01

----------------------------Distribution of species----------------------------

                                               Log       Log       Log    mole V
   Species          Molality    Activity  Molality  Activity     Gamma   cm³/mol

   OH-             1.096e-07   1.058e-07    -6.960    -6.976    -0.016     -4.11
   H+              9.900e-08   9.569e-08    -7.004    -7.019    -0.015      0.00
   H2O             5.551e+01   1.000e+00     1.744    -0.000     0.000     18.07
H(0)          0.000e+00
   H2              0.000e+00   0.000e+00   -42.220   -42.220     0.000     28.61
N(-3)         0.000e+00
   NH4+            0.000e+00   0.000e+00   -54.240   -54.256    -0.016     17.96
   NH3             0.000e+00   0.000e+00   -56.481   -56.481     0.000     24.42
N(0)          9.174e-09
   N2              4.587e-09   4.588e-09    -8.338    -8.338     0.000     29.29
N(3)          3.164e-14
   NO2-            3.164e-14   3.052e-14   -13.500   -13.515    -0.016     24.97
N(5)          1.000e-03
   NO3-            1.000e-03   9.646e-04    -3.000    -3.016    -0.016     29.49
Na            1.000e-03
   Na+             1.000e-03   9.652e-04    -3.000    -3.015    -0.015     -1.48
   NaOH            1.021e-20   1.021e-20   -19.991   -19.991     0.000     (0)  
O(0)          2.293e-08
   O2              1.147e-08   1.147e-08    -7.941    -7.940     0.000     30.40

------------------------------Saturation indices-------------------------------

  Phase               SI** log IAP   log K(298 K,   1 atm)

  H2(g)           -39.12    -42.22   -3.10  H2
  H2O(g)           -1.50     -0.00    1.50  H2O
  N2(g)            -5.16     -8.34   -3.18  N2
  NH3(g)          -58.28    -56.48    1.80  NH3
  O2(g)            -5.05     -7.94   -2.89  O2

**For a gas, SI = log10(fugacity). Fugacity = pressure * phi / 1 atm.
  For ideal gases, phi = 1.

Using solution 7.	Solution after simulation 2.
Using exchange 7.	Exchange assemblage after simulation 2.

-----------------------------Exchange composition------------------------------

X                1.100e-03 mol

	                               Equiv-    Equivalent      Log 
	Species             Moles      alents      Fraction     Gamma

	NaX               1.100e-03   1.100e-03   1.000e+00    -0.015
	NH4X              2.518e-54   2.518e-54   2.289e-51    -0.016

-----------------------------Solution composition------------------------------

	Elements           Molality       Moles

	N                 1.000e-03   1.000e-03
	Na                1.000e-03   1.000e-03

----------------------------Description of solution----------------------------

                                       pH  =   7.019      Charge balance
                                       pe  =  12.516      Adjusted to redox equilibrium
      Specific Conductance (µS/cm,  25°C)  = 118
                          Density (g/cm³)  =   0.99710
                               Volume (L)  =   1.00299
                        Activity of water  =   1.000
                 Ionic strength (mol/kgw)  =   1.000e-03
                       Mass of water (kg)  =   1.000e+00
                 Total alkalinity (eq/kg)  =   1.062e-08
                         Temperature (°C)  =  25.00
                  Electrical balance (eq)  =  -1.451e-09
 Percent error, 100*(Cat-|An|)/(Cat+|An|)  =  -0.00
                               Iterations  =   1
                                  Total H  = 1.110124e+02
                                  Total O  = 5.550922e+01

----------------------------Distribution of species----------------------------

                                               Log       Log       Log    mole V
   Species          Molality    Activity  Molality  Activity     Gamma   cm³/mol

   OH-             1.096e-07   1.058e-07    -6.960    -6.976    -0.016     -4.11
   H+              9.900e-08   9.569e-08    -7.004    -7.019    -0.015      0.00
   H2O             5.551e+01   1.000e+00     1.744    -0.000     0.000     18.07
H(0)          0.000e+00
   H2              0.000e+00   0.000e+00   -42.220   -42.220     0.000     28.61
N(-3)         0.000e+00
   NH4+            0.000e+00   0.000e+00   -54.240   -54.256    -0.016     17.96
   NH3             0.000e+00   0.000e+00   -56.481   -56.481     0.000     24.42
N(0)          9.174e-09
   N2              4.587e-09   4.588e-09    -8.338    -8.338     0.000     29.29
N(3)          3.164e-14
   NO2-            3.164e-14   3.052e-14   -13.500   -13.515    -0.016     24.97
N(5)          1.000e-03
   NO3-            1.000e-03   9.646e-04    -3.000    -3.016    -0.016     29.49
Na            1.000e-03
   Na+             1.000e-03   9.652e-04    -3.000    -3.015    -0.015     -1.48
   NaOH            1.021e-20   1.021e-20   -19.991   -19.991     0.000     (0)  
O(0)          2.293e-08
   O2              1.147e-08   1.147e-08    -7.941    -7.940     0.000     30.40

------------------------------Saturation indices-------------------------------

  Phase               SI** log IAP   log K(298 K,   1 atm)

  H2(g)           -39.12    -42.22   -3.10  H2
  H2O(g)           -1.50     -0.00    1.50  H2O
  N2(g)            -5.16     -8.34   -3.18  N2
  NH3(g)          -58.28    -56.48    1.80  NH3
  O2(g)            -5.05     -7.94   -2.89  O2

**For a gas, SI = log10(fugacity). Fugacity = pressure * phi / 1 atm.
  For ideal gases, phi = 1.

Using solution 8.	Solution after simulation 2.
Using exchange 8.	Exchange assemblage after simulation 2.

-----------------------------Exchange composition------------------------------

X                1.100e-03 mol

	                               Equiv-    Equivalent      Log 
	Species             Moles      alents      Fraction     Gamma

	NaX               1.100e-03   1.100e-03   1.000e+00    -0.015
	NH4X              2.518e-54   2.518e-54   2.289e-51    -0.016

-----------------------------Solution composition------------------------------

	Elements           Molality       Moles

	N                 1.000e-03   1.000e-03
	Na                1.000e-03   1.000e-03

----------------------------Description of solution----------------------------

                                       pH  =   7.019      Charge balance
                                       pe  =  12.516      Adjusted to redox equilibrium
      Specific Conductance (µS/cm,  25°C)  = 118
                          Density (g/cm³)  =   0.99710
                               Volume (L)  =   1.00299
                        Activity of water  =   1.000
                 Ionic strength (mol/kgw)  =   1.000e-03
                       Mass of water (kg)  =   1.000e+00
                 Total alkalinity (eq/kg)  =   1.062e-08
                         Temperature (°C)  =  25.00
                  Electrical balance (eq)  =  -1.451e-09
 Percent error, 100*(Cat-|An|)/(Cat+|An|)  =  -0.00
                               Iterations  =   1
                                  Total H  = 1.110124e+02
                                  Total O  = 5.550922e+01

----------------------------Distribution of species----------------------------

                                               Log       Log       Log    mole V
   Species          Molality    Activity  Molality  Activity     Gamma   cm³/mol

   OH-             1.096e-07   1.058e-07    -6.960    -6.976    -0.016     -4.11
   H+              9.900e-08   9.569e-08    -7.004    -7.019    -0.015      0.00
   H2O             5.551e+01   1.000e+00     1.744    -0.000     0.000     18.07
H(0)          0.000e+00
   H2              0.000e+00   0.000e+00   -42.220   -42.220     0.000     28.61
N(-3)         0.000e+00
   NH4+            0.000e+00   0.000e+00   -54.240   -54.256    -0.016     17.96
   NH3             0.000e+00   0.000e+00   -56.481   -56.481     0.000     24.42
N(0)          9.174e-09
   N2              4.587e-09   4.588e-09    -8.338    -8.338     0.000     29.29
N(3)          3.164e-14
   NO2-            3.164e-14   3.052e-14   -13.500   -13.515    -0.016     24.97
N(5)          1.000e-03
   NO3-            1.000e-03   9.646e-04    -3.000    -3.016    -0.016     29.49
Na            1.000e-03
   Na+             1.000e-03   9.652e-04    -3.000    -3.015    -0.015     -1.48
   NaOH            1.021e-20   1.021e-20   -19.991   -19.991     0.000     (0)  
O(0)          2.293e-08
   O2              1.147e-08   1.147e-08    -7.941    -7.940     0.000     30.40

------------------------------Saturation indices-------------------------------

  Phase               SI** log IAP   log K(298 K,   1 atm)

  H2(g)           -39.12    -42.22   -3.10  H2
  H2O(g)           -1.50     -0.00    1.50  H2O
  N2(g)            -5.16     -8.34   -3.18  N2
  NH3(g)          -58.28    -56.48    1.80  NH3
  O2(g)            -5.05     -7.94   -2.89  O2

**For a gas, SI = log10(fugacity). Fugacity = pressure * phi / 1 atm.
  For ideal gases, phi = 1.

Using solution 9.	Solution after simulation 2.
Using exchange 9.	Exchange assemblage after simulation 2.

-----------------------------Exchange composition------------------------------

X                1.100e-03 mol

	                               Equiv-    Equivalent      Log 
	Species             Moles      alents      Fraction     Gamma

	NaX               1.100e-03   1.100e-03   1.000e+00    -0.015
[...]
                         Temperature (°C)  =  25.00
                  Electrical balance (eq)  =  -2.477e-09
 Percent error, 100*(Cat-|An|)/(Cat+|An|)  =  -0.00
                               Iterations  =   0
                                  Total H  = 1.110124e+02
                                  Total O  = 5.550622e+01

----------------------------Distribution of species----------------------------

                                               Log       Log       Log    mole V
   Species          Molality    Activity  Molality  Activity     Gamma   cm³/mol

   OH-             1.061e-07   1.012e-07    -6.974    -6.995    -0.021     -4.10
   H+              1.045e-07   1.000e-07    -6.981    -7.000    -0.019      0.00
   H2O             5.551e+01   1.000e+00     1.744    -0.000     0.000     18.07
Ca            6.000e-04
   Ca+2            6.000e-04   4.983e-04    -3.222    -3.302    -0.081    -18.10
   CaOH+           8.670e-10   8.270e-10    -9.062    -9.082    -0.020     (0)  
Cl            1.200e-03
   Cl-             1.200e-03   1.144e-03    -2.921    -2.941    -0.021     18.08
H(0)          1.415e-25
   H2              7.077e-26   7.079e-26   -25.150   -25.150     0.000     28.61
O(0)          0.000e+00
   O2              0.000e+00   0.000e+00   -42.080   -42.080     0.000     30.40

------------------------------Saturation indices-------------------------------

  Phase               SI** log IAP   log K(298 K,   1 atm)

  H2(g)           -22.05    -25.15   -3.10  H2
  H2O(g)           -1.50     -0.00    1.50  H2O
  O2(g)           -39.19    -42.08   -2.89  O2

**For a gas, SI = log10(fugacity). Fugacity = pressure * phi / 1 atm.
  For ideal gases, phi = 1.

Using solution 5.	Solution after simulation 2.
Using exchange 5.	Exchange assemblage after simulation 2.

-----------------------------Exchange composition------------------------------

X                1.100e-03 mol

	                               Equiv-    Equivalent      Log 
	Species             Moles      alents      Fraction     Gamma

	CaX2              5.500e-04   1.100e-03   1.000e+00    -0.081

-----------------------------Solution composition------------------------------

	Elements           Molality       Moles

	Ca                6.000e-04   6.000e-04
	Cl                1.200e-03   1.200e-03

----------------------------Description of solution----------------------------

                                       pH  =   7.000      Charge balance
                                       pe  =   4.000      Adjusted to redox equilibrium
      Specific Conductance (µS/cm,  25°C)  = 152
                          Density (g/cm³)  =   0.99710
                               Volume (L)  =   1.00298
                        Activity of water  =   1.000
                 Ionic strength (mol/kgw)  =   1.800e-03
                       Mass of water (kg)  =   1.000e+00
                 Total alkalinity (eq/kg)  =   2.477e-09
                         Temperature (°C)  =  25.00
                  Electrical balance (eq)  =  -2.477e-09
 Percent error, 100*(Cat-|An|)/(Cat+|An|)  =  -0.00
                               Iterations  =   0
                                  Total H  = 1.110124e+02
                                  Total O  = 5.550622e+01

----------------------------Distribution of species----------------------------

                                               Log       Log       Log    mole V
   Species          Molality    Activity  Molality  Activity     Gamma   cm³/mol

   OH-             1.061e-07   1.012e-07    -6.974    -6.995    -0.021     -4.10
   H+              1.045e-07   1.000e-07    -6.981    -7.000    -0.019      0.00
   H2O             5.551e+01   1.000e+00     1.744    -0.000     0.000     18.07
Ca            6.000e-04
   Ca+2            6.000e-04   4.983e-04    -3.222    -3.302    -0.081    -18.10
   CaOH+           8.670e-10   8.270e-10    -9.062    -9.082    -0.020     (0)  
Cl            1.200e-03
   Cl-             1.200e-03   1.144e-03    -2.921    -2.941    -0.021     18.08
H(0)          1.415e-25
   H2              7.077e-26   7.079e-26   -25.150   -25.150     0.000     28.61
O(0)          0.000e+00
   O2              0.000e+00   0.000e+00   -42.080   -42.080     0.000     30.40

------------------------------Saturation indices-------------------------------

  Phase               SI** log IAP   log K(298 K,   1 atm)

  H2(g)           -22.05    -25.15   -3.10  H2
  H2O(g)           -1.50     -0.00    1.50  H2O
  O2(g)           -39.19    -42.08   -2.89  O2

**For a gas, SI = log10(fugacity). Fugacity = pressure * phi / 1 atm.
  For ideal gases, phi = 1.

Using solution 6.	Solution after simulation 2.
Using exchange 6.	Exchange assemblage after simulation 2.

-----------------------------Exchange composition------------------------------

X                1.100e-03 mol

	                               Equiv-    Equivalent      Log 
	Species             Moles      alents      Fraction     Gamma

	CaX2              5.500e-04   1.100e-03   1.000e+00    -0.081

-----------------------------Solution composition------------------------------

	Elements           Molality       Moles

	Ca                6.000e-04   6.000e-04
	Cl                1.200e-03   1.200e-03

----------------------------Description of solution----------------------------

                                       pH  =   7.000      Charge balance
                                       pe  =   4.000      Adjusted to redox equilibrium
      Specific Conductance (µS/cm,  25°C)  = 152
                          Density (g/cm³)  =   0.99710
                               Volume (L)  =   1.00298
                        Activity of water  =   1.000
                 Ionic strength (mol/kgw)  =   1.800e-03
                       Mass of water (kg)  =   1.000e+00
                 Total alkalinity (eq/kg)  =   2.477e-09
                         Temperature (°C)  =  25.00
                  Electrical balance (eq)  =  -2.477e-09
 Percent error, 100*(Cat-|An|)/(Cat+|An|)  =  -0.00
                               Iterations  =   0
                                  Total H  = 1.110124e+02
                                  Total O  = 5.550622e+01

----------------------------Distribution of species----------------------------

                                               Log       Log       Log    mole V
   Species          Molality    Activity  Molality  Activity     Gamma   cm³/mol

   OH-             1.061e-07   1.012e-07    -6.974    -6.995    -0.021     -4.10
   H+              1.045e-07   1.000e-07    -6.981    -7.000    -0.019      0.00
   H2O             5.551e+01   1.000e+00     1.744    -0.000     0.000     18.07
Ca            6.000e-04
   Ca+2            6.000e-04   4.983e-04    -3.222    -3.302    -0.081    -18.10
   CaOH+           8.670e-10   8.270e-10    -9.062    -9.082    -0.020     (0)  
Cl            1.200e-03
   Cl-             1.200e-03   1.144e-03    -2.921    -2.941    -0.021     18.08
H(0)          1.415e-25
   H2              7.077e-26   7.079e-26   -25.150   -25.150     0.000     28.61
O(0)          0.000e+00
   O2              0.000e+00   0.000e+00   -42.080   -42.080     0.000     30.40

------------------------------Saturation indices-------------------------------

  Phase               SI** log IAP   log K(298 K,   1 atm)

  H2(g)           -22.05    -25.15   -3.10  H2
  H2O(g)           -1.50     -0.00    1.50  H2O
  O2(g)           -39.19    -42.08   -2.89  O2

**For a gas, SI = log10(fugacity). Fugacity = pressure * phi / 1 atm.
  For ideal gases, phi = 1.

Using solution 7.	Solution after simulation 2.
Using exchange 7.	Exchange assemblage after simulation 2.

-----------------------------Exchange composition------------------------------

X                1.100e-03 mol

	                               Equiv-    Equivalent      Log 
	Species             Moles      alents      Fraction     Gamma

	CaX2              5.500e-04   1.100e-03   1.000e+00    -0.081

-----------------------------Solution composition------------------------------

	Elements           Molality       Moles

	Ca                6.000e-04   6.000e-04
	Cl                1.200e-03   1.200e-03

----------------------------Description of solution----------------------------

                                       pH  =   7.000      Charge balance
                                       pe  =   4.000      Adjusted to redox equilibrium
      Specific Conductance (µS/cm,  25°C)  = 152
                          Density (g/cm³)  =   0.99710
                               Volume (L)  =   1.00298
                        Activity of water  =   1.000
                 Ionic strength (mol/kgw)  =   1.800e-03
                       Mass of water (kg)  =   1.000e+00
                 Total alkalinity (eq/kg)  =   2.477e-09
                         Temperature (°C)  =  25.00
                  Electrical balance (eq)  =  -2.477e-09
 Percent error, 100*(Cat-|An|)/(Cat+|An|)  =  -0.00
                               Iterations  =   0
                                  Total H  = 1.110124e+02
                                  Total O  = 5.550622e+01

----------------------------Distribution of species----------------------------

                                               Log       Log       Log    mole V
   Species          Molality    Activity  Molality  Activity     Gamma   cm³/mol

   OH-             1.061e-07   1.012e-07    -6.974    -6.995    -0.021     -4.10
   H+              1.045e-07   1.000e-07    -6.981    -7.000    -0.019      0.00
   H2O             5.551e+01   1.000e+00     1.744    -0.000     0.000     18.07
Ca            6.000e-04
   Ca+2            6.000e-04   4.983e-04    -3.222    -3.302    -0.081    -18.10
   CaOH+           8.670e-10   8.270e-10    -9.062    -9.082    -0.020     (0)  
Cl            1.200e-03
   Cl-             1.200e-03   1.144e-03    -2.921    -2.941    -0.021     18.08
H(0)          1.415e-25
   H2              7.077e-26   7.079e-26   -25.150   -25.150     0.000     28.61
O(0)          0.000e+00
   O2              0.000e+00   0.000e+00   -42.080   -42.080     0.000     30.40

------------------------------Saturation indices-------------------------------

  Phase               SI** log IAP   log K(298 K,   1 atm)

  H2(g)           -22.05    -25.15   -3.10  H2
  H2O(g)           -1.50     -0.00    1.50  H2O
  O2(g)           -39.19    -42.08   -2.89  O2

**For a gas, SI = log10(fugacity). Fugacity = pressure * phi / 1 atm.
  For ideal gases, phi = 1.

Using solution 8.	Solution after simulation 2.
Using exchange 8.	Exchange assemblage after simulation 2.

-----------------------------Exchange composition------------------------------

X                1.100e-03 mol

	                               Equiv-    Equivalent      Log 
	Species             Moles      alents      Fraction     Gamma

	CaX2              5.500e-04   1.100e-03   1.000e+00    -0.081

-----------------------------Solution composition------------------------------

	Elements           Molality       Moles

	Ca                6.000e-04   6.000e-04
	Cl                1.200e-03   1.200e-03

----------------------------Description of solution----------------------------

                                       pH  =   7.000      Charge balance
                                       pe  =   4.000      Adjusted to redox equilibrium
      Specific Conductance (µS/cm,  25°C)  = 152
                          Density (g/cm³)  =   0.99710
                               Volume (L)  =   1.00298
                        Activity of water  =   1.000
                 Ionic strength (mol/kgw)  =   1.800e-03
                       Mass of water (kg)  =   1.000e+00
                 Total alkalinity (eq/kg)  =   2.477e-09
                         Temperature (°C)  =  25.00
                  Electrical balance (eq)  =  -2.477e-09
 Percent error, 100*(Cat-|An|)/(Cat+|An|)  =  -0.00
                               Iterations  =   0
                                  Total H  = 1.110124e+02
                                  Total O  = 5.550622e+01

----------------------------Distribution of species----------------------------

                                               Log       Log       Log    mole V
   Species          Molality    Activity  Molality  Activity     Gamma   cm³/mol

   OH-             1.061e-07   1.012e-07    -6.974    -6.995    -0.021     -4.10
   H+              1.045e-07   1.000e-07    -6.981    -7.000    -0.019      0.00
   H2O             5.551e+01   1.000e+00     1.744    -0.000     0.000     18.07
Ca            6.000e-04
   Ca+2            6.000e-04   4.983e-04    -3.222    -3.302    -0.081    -18.10
   CaOH+           8.670e-10   8.270e-10    -9.062    -9.082    -0.020     (0)  
Cl            1.200e-03
   Cl-             1.200e-03   1.144e-03    -2.921    -2.941    -0.021     18.08
H(0)          1.415e-25
   H2              7.077e-26   7.079e-26   -25.150   -25.150     0.000     28.61
O(0)          0.000e+00
   O2              0.000e+00   0.000e+00   -42.080   -42.080     0.000     30.40

------------------------------Saturation indices-------------------------------

  Phase               SI** log IAP   log K(298 K,   1 atm)

  H2(g)           -22.05    -25.15   -3.10  H2
  H2O(g)           -1.50     -0.00    1.50  H2O
  O2(g)           -39.19    -42.08   -2.89  O2

**For a gas, SI = log10(fugacity). Fugacity = pressure * phi / 1 atm.
  For ideal gases, phi = 1.

Using solution 9.	Solution after simulation 2.
Using exchange 9.	Exchange assemblage after simulation 2.

-----------------------------Exchange composition------------------------------

X                1.100e-03 mol

	                               Equiv-    Equivalent      Log 
	Species             Moles      alents      Fraction     Gamma

	CaX2              5.500e-04   1.100e-03   1.000e+00    -0.081

-----------------------------Solution composition------------------------------

	Elements           Molality       Moles

	Ca                6.000e-04   6.000e-04
	Cl                1.200e-03   1.200e-03

----------------------------Description of solution----------------------------

                                       pH  =   7.000      Charge balance
                                       pe  =   4.000      Adjusted to redox equilibrium
      Specific Conductance (µS/cm,  25°C)  = 152
                          Density (g/cm³)  =   0.99710
                               Volume (L)  =   1.00298
                        Activity of water  =   1.000
                 Ionic strength (mol/kgw)  =   1.800e-03
                       Mass of water (kg)  =   1.000e+00
                 Total alkalinity (eq/kg)  =   2.477e-09
                         Temperature (°C)  =  25.00
                  Electrical balance (eq)  =  -2.477e-09
 Percent error, 100*(Cat-|An|)/(Cat+|An|)  =  -0.00
                               Iterations  =   0
                                  Total H  = 1.110124e+02
                                  Total O  = 5.550622e+01

----------------------------Distribution of species----------------------------

                                               Log       Log       Log    mole V
   Species          Molality    Activity  Molality  Activity     Gamma   cm³/mol

   OH-             1.061e-07   1.012e-07    -6.974    -6.995    -0.021     -4.10
   H+              1.045e-07   1.000e-07    -6.981    -7.000    -0.019      0.00
   H2O             5.551e+01   1.000e+00     1.744    -0.000     0.000     18.07
Ca            6.000e-04
   Ca+2            6.000e-04   4.983e-04    -3.222    -3.302    -0.081    -18.10
   CaOH+           8.670e-10   8.270e-10    -9.062    -9.082    -0.020     (0)  
Cl            1.200e-03
   Cl-             1.200e-03   1.144e-03    -2.921    -2.941    -0.021     18.08
H(0)          1.415e-25
   H2              7.077e-26   7.079e-26   -25.150   -25.150     0.000     28.61
O(0)          0.000e+00
   O2              0.000e+00   0.000e+00   -42.080   -42.080     0.000     30.40

------------------------------Saturation indices-------------------------------

  Phase               SI** log IAP   log K(298 K,   1 atm)

  H2(g)           -22.05    -25.15   -3.10  H2
  H2O(g)           -1.50     -0.00    1.50  H2O
  O2(g)           -39.19    -42.08   -2.89  O2

**For a gas, SI = log10(fugacity). Fugacity = pressure * phi / 1 atm.
  For ideal gases, phi = 1.

Using solution 10.	Solution after simulation 2.
Using exchange 10.	Exchange assemblage after simulation 2.

-----------------------------Exchange composition------------------------------

X                1.100e-03 mol

	                               Equiv-    Equivalent      Log 
	Species             Moles      alents      Fraction     Gamma

	CaX2              5.500e-04   1.100e-03   1.000e+00    -0.081
	NaX               2.852e-25   2.852e-25   2.593e-22    -0.020

-----------------------------Solution composition------------------------------

	Elements           Molality       Moles

	Ca                6.000e-04   6.000e-04
	Cl                1.200e-03   1.200e-03
	Na                1.595e-23   1.595e-23

----------------------------Description of solution----------------------------

                                       pH  =   7.000      Charge balance
                                       pe  =  11.143      Adjusted to redox equilibrium
      Specific Conductance (µS/cm,  25°C)  = 152
                          Density (g/cm³)  =   0.99710
                               Volume (L)  =   1.00298
                        Activity of water  =   1.000
                 Ionic strength (mol/kgw)  =   1.800e-03
                       Mass of water (kg)  =   1.000e+00
                 Total alkalinity (eq/kg)  =   2.477e-09
                         Temperature (°C)  =  25.00
                  Electrical balance (eq)  =  -2.477e-09
 Percent error, 100*(Cat-|An|)/(Cat+|An|)  =  -0.00
                               Iterations  =   3
                                  Total H  = 1.110124e+02
                                  Total O  = 5.550622e+01

----------------------------Distribution of species----------------------------

                                               Log       Log       Log    mole V
   Species          Molality    Activity  Molality  Activity     Gamma   cm³/mol

   OH-             1.061e-07   1.012e-07    -6.974    -6.995    -0.021     -4.10
   H+              1.045e-07   1.000e-07    -6.981    -7.000    -0.019      0.00
   H2O             5.551e+01   1.000e+00     1.744    -0.000     0.000     18.07
Ca            6.000e-04
   Ca+2            6.000e-04   4.983e-04    -3.222    -3.302    -0.081    -18.10
   CaOH+           8.670e-10   8.270e-10    -9.062    -9.082    -0.020     (0)  
Cl            1.200e-03
   Cl-             1.200e-03   1.144e-03    -2.921    -2.941    -0.021     18.08
H(0)          7.340e-40
   H2              3.670e-40   3.671e-40   -39.435   -39.435     0.000     28.61
Na            1.595e-23
   Na+             1.595e-23   1.523e-23   -22.797   -22.817    -0.020     -1.46
   NaOH            1.540e-40   1.541e-40   -39.812   -39.812     0.000     (0)  
O(0)          6.182e-14
   O2              3.091e-14   3.092e-14   -13.510   -13.510     0.000     30.40

------------------------------Saturation indices-------------------------------

  Phase               SI** log IAP   log K(298 K,   1 atm)

  H2(g)           -36.33    -39.44   -3.10  H2
  H2O(g)           -1.50     -0.00    1.50  H2O
  Halite          -27.33    -25.76    1.57  NaCl
  O2(g)           -10.62    -13.51   -2.89  O2

**For a gas, SI = log10(fugacity). Fugacity = pressure * phi / 1 atm.
  For ideal gases, phi = 1.

------------------
End of simulation.
------------------

------------------------------------
Reading input data for simulation 3.
------------------------------------

-------------------------------
End of Run after 2.214 Seconds.
-------------------------------

