WARNING: Database file from DATABASE keyword is used; command line argument ignored.
   Input file: C:\Users\Eirik\Desktop\phreeqc-3.6.2-15100-x64\bin\1.pqi
  Output file: C:\Users\Eirik\Desktop\phreeqc-3.6.2-15100-x64\bin\1.pqi.out
Database file: C:\Users\Eirik\Desktop\phreeqc-3.6.2-15100-x64\database\phreeqc.dat

------------------
Reading data base.
------------------

	SOLUTION_MASTER_SPECIES
	SOLUTION_SPECIES
	PHASES
	EXCHANGE_MASTER_SPECIES
	EXCHANGE_SPECIES
	SURFACE_MASTER_SPECIES
	SURFACE_SPECIES
	RATES
	END
------------------------------------
Reading input data for simulation 1.
------------------------------------

	DATABASE C:\Users\Eirik\Desktop\phreeqc-3.6.2-15100-x64\database\phreeqc.dat
	SOLUTION_MASTER_SPECIES                            # define quinoline...
	 Tce Tce 0.0 C2Cl3H 131.4
	 Dceoo       Dceoo	   0.0	  C2H2Cl2  	    96.94
	 Dcec        Dcec        0.0        C2H2Cl2       96.94
	 Dcet	   Dcet	   0.0	  C2H2Cl2  	    96.94
	SOLUTION_SPECIES
	 Dceoo = Dceoo
		log_k   0.0
	 Dcec = Dcec
	      log_k   0.0
	 Dcet = Dcet
		log_k   0.0
	 Tce = Tce
	 log_k 0
	 Tce + H2 = Dcec + H+ + Cl-
		log_k   29.66
	 Tce + H2 = Dcet + H+ + Cl-
	      log_k   21.98
	 Tce + H2 = Dceoo + H+ + Cl-
	      log_k   21.39
	SURFACE_MASTER_SPECIES                             # define absorption into OC..
	 Org_c Org_c
	SURFACE_SPECIES
	 Org_c = Org_c
	 log_k 0
	 Org_c + Tce = Org_cTce
	 log_k -98.0            # divide K_oc = 100 by 10**100
	EXCHANGE_SPECIES
	 X- + TceH+ = XTceH
	 log_k 0                    # equal to K_NaX
	END
ERROR: Elements in species have not been tabulated, TceH+.
ERROR: Reaction for species has not been defined, TceH+.
ERROR: Calculations terminating due to input errors.
Stopping.
