WARNING: Database file from DATABASE keyword is used; command line argument ignored.
   Input file: C:\Users\Eirik\Desktop\phreeqc-3.6.2-15100-x64\bin\2.pqi
  Output file: C:\Users\Eirik\Desktop\phreeqc-3.6.2-15100-x64\bin\2.pqi.out
Database file: C:\Users\Eirik\Desktop\phreeqc-3.6.2-15100-x64\database\phreeqc.dat

------------------
Reading data base.
------------------

	SOLUTION_MASTER_SPECIES
	SOLUTION_SPECIES
	PHASES
	EXCHANGE_MASTER_SPECIES
	EXCHANGE_SPECIES
	SURFACE_MASTER_SPECIES
	SURFACE_SPECIES
	RATES
	END
------------------------------------
Reading input data for simulation 1.
------------------------------------

	DATABASE C:\Users\Eirik\Desktop\phreeqc-3.6.2-15100-x64\database\phreeqc.dat
	SOLUTION_MASTER_SPECIES
		Tce Tce 0.0 C2Cl3H 131.4
	SOLUTION_SPECIES
		Tce = Tce
			log_k 0
	RATES
	 S_degradation
	 start
	  1 k_max = parm(1)
	   2 k_half = parm(2)          # parms defined in KINETICS
	 10 S = tot("Tce")
	 20 if S < 1e-3 then goto 50                       # quit at low conc.
	 30 rate = - k_max * S /(k_half + S)
	 40 dS = rate * time
	 50 save dS
	 end
	SOLUTION 1
	    units mol/L
	    Tce 0.1*1/133.4
	KINETICS 1
	 S_degradation
	 formula Tce 1
	 m0 0
	 parms 0.00144 1.28                        # k_max in g phenol/L/s,  k_half in g/L
	 steps 7200 in 200                                # 40 days
	INCREMENTAL_REACTIONS true
	USER_GRAPH
	 -headings time TCE
	 -chart_title "Degredation of 100mg TCE "
	 -axis_titles "Time / hours" "mol/L"
	 -start
	 10 graph_x total_time / 3600
	 20 graph_y tot("Tce")
	 -end
	END
-------------------------------------------
Beginning of initial solution calculations.
-------------------------------------------

Initial solution 1.	

-----------------------------Solution composition------------------------------

	Elements           Molality       Moles

	Tce               1.013e-01   1.013e-01

----------------------------Description of solution----------------------------

                                       pH  =   7.000    
                                       pe  =   4.000    
      Specific Conductance (µS/cm,  25°C)  = 0
                          Density (g/cm³)  =   1.01032
                               Volume (L)  =   1.00297
                        Activity of water  =   0.998
                 Ionic strength (mol/kgw)  =   1.006e-07
                       Mass of water (kg)  =   1.000e+00
                 Total alkalinity (eq/kg)  =   1.042e-09
                         Temperature (°C)  =  25.00
                  Electrical balance (eq)  =  -1.042e-09
 Percent error, 100*(Cat-|An|)/(Cat+|An|)  =  -0.52
                               Iterations  =   3
                                  Total H  = 1.110124e+02
                                  Total O  = 5.550622e+01

----------------------------Distribution of species----------------------------

                                               Log       Log       Log    mole V
   Species          Molality    Activity  Molality  Activity     Gamma   cm³/mol

   OH-             1.011e-07   1.010e-07    -6.995    -6.996    -0.000     -4.14
   H+              1.000e-07   1.000e-07    -7.000    -7.000    -0.000      0.00
   H2O             5.551e+01   9.983e-01     1.744    -0.001     0.000     18.07
H(0)          1.416e-25
   H2              7.079e-26   7.079e-26   -25.150   -25.150     0.000     28.61
O(0)          0.000e+00
   O2              0.000e+00   0.000e+00   -42.081   -42.081     0.000     30.40
Tce           1.013e-01
   Tce             1.013e-01   1.013e-01    -0.994    -0.994     0.000     (0)  

------------------------------Saturation indices-------------------------------

  Phase               SI** log IAP   log K(298 K,   1 atm)

  H2(g)           -22.05    -25.15   -3.10  H2
  H2O(g)           -1.50     -0.00    1.50  H2O
  O2(g)           -39.19    -42.08   -2.89  O2

**For a gas, SI = log10(fugacity). Fugacity = pressure * phi / 1 atm.
  For ideal gases, phi = 1.

-----------------------------------------
Beginning of batch-reaction calculations.
-----------------------------------------

Reaction step 1.

Using solution 1.	
Using kinetics 1.	

Kinetics 1.	

	Time step: 36 seconds  (Incremented time: 36 seconds)

	Rate name       Delta Moles Total Moles   Reactant        Coefficient

	S_degradation     3.737e-03   3.737e-03   Tce                       1

-----------------------------Solution composition------------------------------

	Elements           Molality       Moles

	Tce               9.759e-02   9.759e-02

----------------------------Description of solution----------------------------

                                       pH  =   7.000      Charge balance
                                       pe  =  -1.063      Adjusted to redox equilibrium
      Specific Conductance (µS/cm,  25°C)  = 0
                          Density (g/cm³)  =   1.00983
                               Volume (L)  =   1.00297
                        Activity of water  =   0.998
                 Ionic strength (mol/kgw)  =   1.006e-07
                       Mass of water (kg)  =   1.000e+00
                 Total alkalinity (eq/kg)  =   1.042e-09
                         Temperature (°C)  =  25.00
                  Electrical balance (eq)  =  -1.042e-09
 Percent error, 100*(Cat-|An|)/(Cat+|An|)  =  -0.52
                               Iterations  =  46
                                  Total H  = 1.110124e+02
                                  Total O  = 5.550622e+01

----------------------------Distribution of species----------------------------

                                               Log       Log       Log    mole V
   Species          Molality    Activity  Molality  Activity     Gamma   cm³/mol

   OH-             1.011e-07   1.010e-07    -6.995    -6.995    -0.000     -4.14
   H+              1.000e-07   1.000e-07    -7.000    -7.000    -0.000      0.00
   H2O             5.551e+01   9.983e-01     1.744    -0.001     0.000     18.07
H(0)          1.896e-15
   H2              9.479e-16   9.479e-16   -15.023   -15.023     0.000     28.61
O(0)          0.000e+00
   O2              0.000e+00   0.000e+00   -62.335   -62.335     0.000     30.40
Tce           9.759e-02
   Tce             9.759e-02   9.759e-02    -1.011    -1.011     0.000     (0)  

------------------------------Saturation indices-------------------------------

  Phase               SI** log IAP   log K(298 K,   1 atm)

  H2(g)           -11.92    -15.02   -3.10  H2
  H2O(g)           -1.50     -0.00    1.50  H2O
  O2(g)           -59.44    -62.33   -2.89  O2

**For a gas, SI = log10(fugacity). Fugacity = pressure * phi / 1 atm.
  For ideal gases, phi = 1.

Reaction step 2.

Using solution 1.	
Using kinetics 1.	

Kinetics 1.	

	Time step: 36 seconds  (Incremented time: 72 seconds)

	Rate name       Delta Moles Total Moles   Reactant        Coefficient

	S_degradation     3.609e-03   7.346e-03   Tce                       1

-----------------------------Solution composition------------------------------

	Elements           Molality       Moles

	Tce               9.399e-02   9.399e-02

----------------------------Description of solution----------------------------

                                       pH  =   7.000      Charge balance
                                       pe  =  11.565      Adjusted to redox equilibrium
      Specific Conductance (µS/cm,  25°C)  = 0
                          Density (g/cm³)  =   1.00936
                               Volume (L)  =   1.00297
                        Activity of water  =   0.998
                 Ionic strength (mol/kgw)  =   1.006e-07
                       Mass of water (kg)  =   1.000e+00
                 Total alkalinity (eq/kg)  =   1.042e-09
                         Temperature (°C)  =  25.00
                  Electrical balance (eq)  =  -1.042e-09
 Percent error, 100*(Cat-|An|)/(Cat+|An|)  =  -0.52
                               Iterations  =  66
                                  Total H  = 1.110124e+02
                                  Total O  = 5.550622e+01

----------------------------Distribution of species----------------------------

                                               Log       Log       Log    mole V
   Species          Molality    Activity  Molality  Activity     Gamma   cm³/mol

   OH-             1.011e-07   1.010e-07    -6.995    -6.995    -0.000     -4.14
   H+              1.000e-07   1.000e-07    -7.000    -7.000    -0.000      0.00
   H2O             5.551e+01   9.984e-01     1.744    -0.001     0.000     18.07
H(0)          0.000e+00
   H2              0.000e+00   0.000e+00   -40.280   -40.280     0.000     28.61
O(0)          3.021e-12
   O2              1.511e-12   1.511e-12   -11.821   -11.821     0.000     30.40
Tce           9.399e-02
   Tce             9.399e-02   9.399e-02    -1.027    -1.027     0.000     (0)  

------------------------------Saturation indices-------------------------------

  Phase               SI** log IAP   log K(298 K,   1 atm)

  H2(g)           -37.18    -40.28   -3.10  H2
  H2O(g)           -1.50     -0.00    1.50  H2O
  O2(g)            -8.93    -11.82   -2.89  O2

**For a gas, SI = log10(fugacity). Fugacity = pressure * phi / 1 atm.
  For ideal gases, phi = 1.

Reaction step 3.

Using solution 1.	
Using kinetics 1.	

Kinetics 1.	

	Time step: 36 seconds  (Incremented time: 108 seconds)

	Rate name       Delta Moles Total Moles   Reactant        Coefficient

	S_degradation     3.484e-03   1.083e-02   Tce                       1

-----------------------------Solution composition------------------------------

	Elements           Molality       Moles

	Tce               9.050e-02   9.050e-02

----------------------------Description of solution----------------------------

                                       pH  =   7.000      Charge balance
                                       pe  =  11.565      Adjusted to redox equilibrium
      Specific Conductance (µS/cm,  25°C)  = 0
                          Density (g/cm³)  =   1.00890
                               Volume (L)  =   1.00297
                        Activity of water  =   0.998
                 Ionic strength (mol/kgw)  =   1.006e-07
                       Mass of water (kg)  =   1.000e+00
                 Total alkalinity (eq/kg)  =   1.042e-09
                         Temperature (°C)  =  25.00
                  Electrical balance (eq)  =  -1.042e-09
 Percent error, 100*(Cat-|An|)/(Cat+|An|)  =  -0.52
                               Iterations  =  16
                                  Total H  = 1.110124e+02
                                  Total O  = 5.550622e+01

----------------------------Distribution of species----------------------------

                                               Log       Log       Log    mole V
   Species          Molality    Activity  Molality  Activity     Gamma   cm³/mol

   OH-             1.011e-07   1.011e-07    -6.995    -6.995    -0.000     -4.14
   H+              1.000e-07   1.000e-07    -7.000    -7.000    -0.000      0.00
   H2O             5.551e+01   9.985e-01     1.744    -0.001     0.000     18.07
H(0)          0.000e+00
   H2              0.000e+00   0.000e+00   -40.280   -40.280     0.000     28.61
O(0)          3.019e-12
   O2              1.509e-12   1.509e-12   -11.821   -11.821     0.000     30.40
Tce           9.050e-02
   Tce             9.050e-02   9.050e-02    -1.043    -1.043     0.000     (0)  

------------------------------Saturation indices-------------------------------

  Phase               SI** log IAP   log K(298 K,   1 atm)

  H2(g)           -37.18    -40.28   -3.10  H2
  H2O(g)           -1.50     -0.00    1.50  H2O
  O2(g)            -8.93    -11.82   -2.89  O2

**For a gas, SI = log10(fugacity). Fugacity = pressure * phi / 1 atm.
  For ideal gases, phi = 1.

Reaction step 4.

Using solution 1.	
Using kinetics 1.	

Kinetics 1.	

	Time step: 36 seconds  (Incremented time: 144 seconds)

	Rate name       Delta Moles Total Moles   Reactant        Coefficient

	S_degradation     3.363e-03   1.419e-02   Tce                       1

-----------------------------Solution composition------------------------------

	Elements           Molality       Moles

	Tce               8.714e-02   8.714e-02

----------------------------Description of solution----------------------------

                                       pH  =   7.000      Charge balance
                                       pe  =  11.565      Adjusted to redox equilibrium
      Specific Conductance (µS/cm,  25°C)  = 0
                          Density (g/cm³)  =   1.00846
                               Volume (L)  =   1.00297
                        Activity of water  =   0.999
                 Ionic strength (mol/kgw)  =   1.006e-07
                       Mass of water (kg)  =   1.000e+00
                 Total alkalinity (eq/kg)  =   1.042e-09
                         Temperature (°C)  =  25.00
                  Electrical balance (eq)  =  -1.042e-09
 Percent error, 100*(Cat-|An|)/(Cat+|An|)  =  -0.52
                               Iterations  =  16
                                  Total H  = 1.110124e+02
                                  Total O  = 5.550622e+01

----------------------------Distribution of species----------------------------

                                               Log       Log       Log    mole V
   Species          Molality    Activity  Molality  Activity     Gamma   cm³/mol

   OH-             1.011e-07   1.011e-07    -6.995    -6.995    -0.000     -4.14
   H+              1.000e-07   1.000e-07    -7.000    -7.000    -0.000      0.00
   H2O             5.551e+01   9.985e-01     1.744    -0.001     0.000     18.07
H(0)          0.000e+00
   H2              0.000e+00   0.000e+00   -40.280   -40.280     0.000     28.61
O(0)          3.019e-12
   O2              1.509e-12   1.509e-12   -11.821   -11.821     0.000     30.40
Tce           8.714e-02
   Tce             8.714e-02   8.714e-02    -1.060    -1.060     0.000     (0)  

------------------------------Saturation indices-------------------------------

  Phase               SI** log IAP   log K(298 K,   1 atm)

  H2(g)           -37.18    -40.28   -3.10  H2
  H2O(g)           -1.50     -0.00    1.50  H2O
  O2(g)            -8.93    -11.82   -2.89  O2

**For a gas, SI = log10(fugacity). Fugacity = pressure * phi / 1 atm.
  For ideal gases, phi = 1.

Reaction step 5.

Using solution 1.	
Using kinetics 1.	

Kinetics 1.	

	Time step: 36 seconds  (Incremented time: 180 seconds)

	Rate name       Delta Moles Total Moles   Reactant        Coefficient

	S_degradation     3.246e-03   1.744e-02   Tce                       1

-----------------------------Solution composition------------------------------

	Elements           Molality       Moles

	Tce               8.389e-02   8.389e-02

----------------------------Description of solution----------------------------

                                       pH  =   7.000      Charge balance
                                       pe  =  11.565      Adjusted to redox equilibrium
      Specific Conductance (µS/cm,  25°C)  = 0
                          Density (g/cm³)  =   1.00803
                               Volume (L)  =   1.00297
                        Activity of water  =   0.999
                 Ionic strength (mol/kgw)  =   1.006e-07
                       Mass of water (kg)  =   1.000e+00
                 Total alkalinity (eq/kg)  =   1.042e-09
                         Temperature (°C)  =  25.00
                  Electrical balance (eq)  =  -1.042e-09
 Percent error, 100*(Cat-|An|)/(Cat+|An|)  =  -0.52
                               Iterations  =  16
                                  Total H  = 1.110124e+02
                                  Total O  = 5.550622e+01

----------------------------Distribution of species----------------------------

                                               Log       Log       Log    mole V
   Species          Molality    Activity  Molality  Activity     Gamma   cm³/mol

   OH-             1.011e-07   1.011e-07    -6.995    -6.995    -0.000     -4.14
   H+              1.001e-07   1.000e-07    -7.000    -7.000    -0.000      0.00
   H2O             5.551e+01   9.986e-01     1.744    -0.001     0.000     18.07
H(0)          0.000e+00
   H2              0.000e+00   0.000e+00   -40.281   -40.281     0.000     28.61
O(0)          3.026e-12
   O2              1.513e-12   1.513e-12   -11.820   -11.820     0.000     30.40
Tce           8.389e-02
   Tce             8.389e-02   8.389e-02    -1.076    -1.076     0.000     (0)  

------------------------------Saturation indices-------------------------------

  Phase               SI** log IAP   log K(298 K,   1 atm)

  H2(g)           -37.18    -40.28   -3.10  H2
  H2O(g)           -1.50     -0.00    1.50  H2O
  O2(g)            -8.93    -11.82   -2.89  O2

**For a gas, SI = log10(fugacity). Fugacity = pressure * phi / 1 atm.
  For ideal gases, phi = 1.

Reaction step 6.

Using solution 1.	
Using kinetics 1.	

Kinetics 1.	

	Time step: 36 seconds  (Incremented time: 216 seconds)

	Rate name       Delta Moles Total Moles   Reactant        Coefficient

	S_degradation     3.132e-03   2.057e-02   Tce                       1

-----------------------------Solution composition------------------------------

	Elements           Molality       Moles

	Tce               8.076e-02   8.076e-02

----------------------------Description of solution----------------------------

                                       pH  =   7.000      Charge balance
                                       pe  =  11.565      Adjusted to redox equilibrium
      Specific Conductance (µS/cm,  25°C)  = 0
                          Density (g/cm³)  =   1.00762
                               Volume (L)  =   1.00297
                        Activity of water  =   0.999
                 Ionic strength (mol/kgw)  =   1.006e-07
                       Mass of water (kg)  =   1.000e+00
                 Total alkalinity (eq/kg)  =   1.042e-09
                         Temperature (°C)  =  25.00
                  Electrical balance (eq)  =  -1.042e-09
 Percent error, 100*(Cat-|An|)/(Cat+|An|)  =  -0.52
                               Iterations  =  16
                                  Total H  = 1.110124e+02
                                  Total O  = 5.550622e+01

----------------------------Distribution of species----------------------------

                                               Log       Log       Log    mole V
   Species          Molality    Activity  Molality  Activity     Gamma   cm³/mol

   OH-             1.011e-07   1.011e-07    -6.995    -6.995    -0.000     -4.14
   H+              1.001e-07   1.000e-07    -7.000    -7.000    -0.000      0.00
   H2O             5.551e+01   9.986e-01     1.744    -0.001     0.000     18.07
H(0)          0.000e+00
   H2              0.000e+00   0.000e+00   -40.281   -40.281     0.000     28.61
O(0)          3.026e-12
   O2              1.513e-12   1.513e-12   -11.820   -11.820     0.000     30.40
Tce           8.076e-02
   Tce             8.076e-02   8.076e-02    -1.093    -1.093     0.000     (0)  

------------------------------Saturation indices-------------------------------

  Phase               SI** log IAP   log K(298 K,   1 atm)

  H2(g)           -37.18    -40.28   -3.10  H2
  H2O(g)           -1.50     -0.00    1.50  H2O
  O2(g)            -8.93    -11.82   -2.89  O2

**For a gas, SI = log10(fugacity). Fugacity = pressure * phi / 1 atm.
  For ideal gases, phi = 1.

Reaction step 7.

Using solution 1.	
Using kinetics 1.	

Kinetics 1.	

	Time step: 36 seconds  (Incremented time: 252 seconds)

	Rate name       Delta Moles Total Moles   Reactant        Coefficient

	S_degradation     3.022e-03   2.359e-02   Tce                       1

-----------------------------Solution composition------------------------------

	Elements           Molality       Moles

	Tce               7.774e-02   7.774e-02

----------------------------Description of solution----------------------------

                                       pH  =   7.000      Charge balance
                                       pe  =  11.565      Adjusted to redox equilibrium
      Specific Conductance (µS/cm,  25°C)  = 0
                          Density (g/cm³)  =   1.00723
                               Volume (L)  =   1.00297
                        Activity of water  =   0.999
                 Ionic strength (mol/kgw)  =   1.006e-07
                       Mass of water (kg)  =   1.000e+00
                 Total alkalinity (eq/kg)  =   1.042e-09
                         Temperature (°C)  =  25.00
                  Electrical balance (eq)  =  -1.042e-09
 Percent error, 100*(Cat-|An|)/(Cat+|An|)  =  -0.52
                               Iterations  =  16
                                  Total H  = 1.110124e+02
                                  Total O  = 5.550622e+01

----------------------------Distribution of species----------------------------

                                               Log       Log       Log    mole V
   Species          Molality    Activity  Molality  Activity     Gamma   cm³/mol

   OH-             1.011e-07   1.011e-07    -6.995    -6.995    -0.000     -4.14
   H+              1.001e-07   1.000e-07    -7.000    -7.000    -0.000      0.00
   H2O             5.551e+01   9.987e-01     1.744    -0.001     0.000     18.07
H(0)          0.000e+00
   H2              0.000e+00   0.000e+00   -40.280   -40.280     0.000     28.61
O(0)          3.026e-12
   O2              1.513e-12   1.513e-12   -11.820   -11.820     0.000     30.40
Tce           7.774e-02
   Tce             7.774e-02   7.774e-02    -1.109    -1.109     0.000     (0)  

------------------------------Saturation indices-------------------------------

  Phase               SI** log IAP   log K(298 K,   1 atm)

  H2(g)           -37.18    -40.28   -3.10  H2
  H2O(g)           -1.50     -0.00    1.50  H2O
  O2(g)            -8.93    -11.82   -2.89  O2

**For a gas, SI = log10(fugacity). Fugacity = pressure * phi / 1 atm.
  For ideal gases, phi = 1.

Reaction step 8.

Using solution 1.	
Using kinetics 1.	

Kinetics 1.	

	Time step: 36 seconds  (Incremented time: 288 seconds)

	Rate name       Delta Moles Total Moles   Reactant        Coefficient

	S_degradation     2.915e-03   2.651e-02   Tce                       1

-----------------------------Solution composition------------------------------

	Elements           Molality       Moles

	Tce               7.482e-02   7.482e-02

----------------------------Description of solution----------------------------

                                       pH  =   7.000      Charge balance
                                       pe  =  11.565      Adjusted to redox equilibrium
      Specific Conductance (µS/cm,  25°C)  = 0
                          Density (g/cm³)  =   1.00685
                               Volume (L)  =   1.00297
                        Activity of water  =   0.999
                 Ionic strength (mol/kgw)  =   1.006e-07
                       Mass of water (kg)  =   1.000e+00
                 Total alkalinity (eq/kg)  =   1.042e-09
                         Temperature (°C)  =  25.00
                  Electrical balance (eq)  =  -1.042e-09
 Percent error, 100*(Cat-|An|)/(Cat+|An|)  =  -0.52
                               Iterations  =  16
                                  Total H  = 1.110124e+02
                                  Total O  = 5.550622e+01

----------------------------Distribution of species----------------------------

                                               Log       Log       Log    mole V
   Species          Molality    Activity  Molality  Activity     Gamma   cm³/mol

   OH-             1.011e-07   1.011e-07    -6.995    -6.995    -0.000     -4.14
   H+              1.001e-07   1.000e-07    -7.000    -7.000    -0.000      0.00
   H2O             5.551e+01   9.987e-01     1.744    -0.001     0.000     18.07
H(0)          0.000e+00
   H2              0.000e+00   0.000e+00   -40.280   -40.280     0.000     28.61
O(0)          3.026e-12
   O2              1.513e-12   1.513e-12   -11.820   -11.820     0.000     30.40
Tce           7.482e-02
   Tce             7.482e-02   7.482e-02    -1.126    -1.126     0.000     (0)  

------------------------------Saturation indices-------------------------------

  Phase               SI** log IAP   log K(298 K,   1 atm)

  H2(g)           -37.18    -40.28   -3.10  H2
  H2O(g)           -1.50     -0.00    1.50  H2O
  O2(g)            -8.93    -11.82   -2.89  O2

**For a gas, SI = log10(fugacity). Fugacity = pressure * phi / 1 atm.
  For ideal gases, phi = 1.

Reaction step 9.

Using solution 1.	
Using kinetics 1.	

Kinetics 1.	

	Time step: 36 seconds  (Incremented time: 324 seconds)

	Rate name       Delta Moles Total Moles   Reactant        Coefficient

	S_degradation     2.812e-03   2.932e-02   Tce                       1

-----------------------------Solution composition------------------------------

	Elements           Molality       Moles

	Tce               7.201e-02   7.201e-02

----------------------------Description of solution----------------------------

                                       pH  =   7.000      Charge balance
                                       pe  =  11.566      Adjusted to redox equilibrium
      Specific Conductance (µS/cm,  25°C)  = 0
                          Density (g/cm³)  =   1.00648
                               Volume (L)  =   1.00297
                        Activity of water  =   0.999
                 Ionic strength (mol/kgw)  =   1.006e-07
                       Mass of water (kg)  =   1.000e+00
                 Total alkalinity (eq/kg)  =   1.042e-09
                         Temperature (°C)  =  25.00
                  Electrical balance (eq)  =  -1.042e-09
 Percent error, 100*(Cat-|An|)/(Cat+|An|)  =  -0.52
                               Iterations  =  16
                                  Total H  = 1.110124e+02
                                  Total O  = 5.550622e+01

----------------------------Distribution of species----------------------------

                                               Log       Log       Log    mole V
   Species          Molality    Activity  Molality  Activity     Gamma   cm³/mol

   OH-             1.011e-07   1.011e-07    -6.995    -6.995    -0.000     -4.14
   H+              1.001e-07   1.000e-07    -7.000    -7.000    -0.000      0.00
   H2O             5.551e+01   9.988e-01     1.744    -0.001     0.000     18.07
H(0)          0.000e+00
   H2              0.000e+00   0.000e+00   -40.281   -40.281     0.000     28.61
O(0)          3.033e-12
   O2              1.517e-12   1.517e-12   -11.819   -11.819     0.000     30.40
Tce           7.201e-02
   Tce             7.201e-02   7.201e-02    -1.143    -1.143     0.000     (0)  

------------------------------Saturation indices-------------------------------

  Phase               SI** log IAP   log K(298 K,   1 atm)

  H2(g)           -37.18    -40.28   -3.10  H2
  H2O(g)           -1.50     -0.00    1.50  H2O
  O2(g)            -8.93    -11.82   -2.89  O2

**For a gas, SI = log10(fugacity). Fugacity = pressure * phi / 1 atm.
  For ideal gases, phi = 1.

Reaction step 10.

Using solution 1.	
Using kinetics 1.	

Kinetics 1.	

	Time step: 36 seconds  (Incremented time: 360 seconds)

	Rate name       Delta Moles Total Moles   Reactant        Coefficient

	S_degradation     2.711e-03   3.203e-02   Tce                       1

-----------------------------Solution composition------------------------------

	Elements           Molality       Moles

	Tce               6.930e-02   6.930e-02

----------------------------Description of solution----------------------------

                                       pH  =   7.000      Charge balance
                                       pe  =  11.566      Adjusted to redox equilibrium
      Specific Conductance (µS/cm,  25°C)  = 0
                          Density (g/cm³)  =   1.00612
                               Volume (L)  =   1.00297
                        Activity of water  =   0.999
                 Ionic strength (mol/kgw)  =   1.006e-07
                       Mass of water (kg)  =   1.000e+00
                 Total alkalinity (eq/kg)  =   1.042e-09
                         Temperature (°C)  =  25.00
                  Electrical balance (eq)  =  -1.042e-09
 Percent error, 100*(Cat-|An|)/(Cat+|An|)  =  -0.52
                               Iterations  =  16
                                  Total H  = 1.110124e+02
                                  Total O  = 5.550622e+01

----------------------------Distribution of species----------------------------

                                               Log       Log       Log    mole V
   Species          Molality    Activity  Molality  Activity     Gamma   cm³/mol

   OH-             1.011e-07   1.011e-07    -6.995    -6.995    -0.000     -4.14
   H+              1.001e-07   1.000e-07    -7.000    -7.000    -0.000      0.00
   H2O             5.551e+01   9.988e-01     1.744    -0.001     0.000     18.07
H(0)          0.000e+00
   H2              0.000e+00   0.000e+00   -40.281   -40.281     0.000     28.61
O(0)          3.033e-12
   O2              1.517e-12   1.517e-12   -11.819   -11.819     0.000     30.40
Tce           6.930e-02
   Tce             6.930e-02   6.930e-02    -1.159    -1.159     0.000     (0)  

------------------------------Saturation indices-------------------------------

  Phase               SI** log IAP   log K(298 K,   1 atm)

  H2(g)           -37.18    -40.28   -3.10  H2
  H2O(g)           -1.50     -0.00    1.50  H2O
  O2(g)            -8.93    -11.82   -2.89  O2

**For a gas, SI = log10(fugacity). Fugacity = pressure * phi / 1 atm.
  For ideal gases, phi = 1.

Reaction step 11.

Using solution 1.	
Using kinetics 1.	

Kinetics 1.	

	Time step: 36 seconds  (Incremented time: 396 seconds)

	Rate name       Delta Moles Total Moles   Reactant        Coefficient

	S_degradation     2.614e-03   3.465e-02   Tce                       1

-----------------------------Solution composition------------------------------

	Elements           Molality       Moles

	Tce               6.668e-02   6.668e-02

----------------------------Description of solution----------------------------

                                       pH  =   7.000      Charge balance
                                       pe  =  11.566      Adjusted to redox equilibrium
      Specific Conductance (µS/cm,  25°C)  = 0
                          Density (g/cm³)  =   1.00578
                               Volume (L)  =   1.00297
                        Activity of water  =   0.999
                 Ionic strength (mol/kgw)  =   1.006e-07
                       Mass of water (kg)  =   1.000e+00
                 Total alkalinity (eq/kg)  =   1.042e-09
                         Temperature (°C)  =  25.00
                  Electrical balance (eq)  =  -1.042e-09
 Percent error, 100*(Cat-|An|)/(Cat+|An|)  =  -0.52
                               Iterations  =  16
                                  Total H  = 1.110124e+02
                                  Total O  = 5.550622e+01

----------------------------Distribution of species----------------------------

                                               Log       Log       Log    mole V
   Species          Molality    Activity  Molality  Activity     Gamma   cm³/mol

   OH-             1.011e-07   1.011e-07    -6.995    -6.995    -0.000     -4.14
   H+              1.001e-07   1.000e-07    -7.000    -7.000    -0.000      0.00
   H2O             5.551e+01   9.989e-01     1.744    -0.000     0.000     18.07
H(0)          0.000e+00
   H2              0.000e+00   0.000e+00   -40.281   -40.281     0.000     28.61
O(0)          3.033e-12
   O2              1.517e-12   1.517e-12   -11.819   -11.819     0.000     30.40
Tce           6.668e-02
   Tce             6.668e-02   6.668e-02    -1.176    -1.176     0.000     (0)  

------------------------------Saturation indices-------------------------------

  Phase               SI** log IAP   log K(298 K,   1 atm)

  H2(g)           -37.18    -40.28   -3.10  H2
  H2O(g)           -1.50     -0.00    1.50  H2O
  O2(g)            -8.93    -11.82   -2.89  O2

**For a gas, SI = log10(fugacity). Fugacity = pressure * phi / 1 atm.
  For ideal gases, phi = 1.

Reaction step 12.

Using solution 1.	
Using kinetics 1.	

Kinetics 1.	

	Time step: 36 seconds  (Incremented time: 432 seconds)

	Rate name       Delta Moles Total Moles   Reactant        Coefficient

	S_degradation     2.521e-03   3.717e-02   Tce                       1

-----------------------------Solution composition------------------------------

	Elements           Molality       Moles

	Tce               6.416e-02   6.416e-02

----------------------------Description of solution----------------------------

                                       pH  =   7.000      Charge balance
                                       pe  =  11.565      Adjusted to redox equilibrium
      Specific Conductance (µS/cm,  25°C)  = 0
                          Density (g/cm³)  =   1.00545
                               Volume (L)  =   1.00297
                        Activity of water  =   0.999
                 Ionic strength (mol/kgw)  =   1.006e-07
                       Mass of water (kg)  =   1.000e+00
                 Total alkalinity (eq/kg)  =   1.042e-09
                         Temperature (°C)  =  25.00
                  Electrical balance (eq)  =  -1.042e-09
 Percent error, 100*(Cat-|An|)/(Cat+|An|)  =  -0.52
                               Iterations  =  16
                                  Total H  = 1.110124e+02
                                  Total O  = 5.550622e+01

----------------------------Distribution of species----------------------------

                                               Log       Log       Log    mole V
   Species          Molality    Activity  Molality  Activity     Gamma   cm³/mol

   OH-             1.011e-07   1.011e-07    -6.995    -6.995    -0.000     -4.14
   H+              1.001e-07   1.000e-07    -7.000    -7.000    -0.000      0.00
   H2O             5.551e+01   9.989e-01     1.744    -0.000     0.000     18.07
H(0)          0.000e+00
   H2              0.000e+00   0.000e+00   -40.280   -40.280     0.000     28.61
O(0)          3.026e-12
   O2              1.513e-12   1.513e-12   -11.820   -11.820     0.000     30.40
Tce           6.416e-02
   Tce             6.416e-02   6.416e-02    -1.193    -1.193     0.000     (0)  

------------------------------Saturation indices-------------------------------

  Phase               SI** log IAP   log K(298 K,   1 atm)

  H2(g)           -37.18    -40.28   -3.10  H2
  H2O(g)           -1.50     -0.00    1.50  H2O
  O2(g)            -8.93    -11.82   -2.89  O2

**For a gas, SI = log10(fugacity). Fugacity = pressure * phi / 1 atm.
  For ideal gases, phi = 1.

Reaction step 13.

Using solution 1.	
Using kinetics 1.	

Kinetics 1.	

	Time step: 36 seconds  (Incremented time: 468 seconds)

	Rate name       Delta Moles Total Moles   Reactant        Coefficient

	S_degradation     2.430e-03   3.960e-02   Tce                       1

-----------------------------Solution composition------------------------------

	Elements           Molality       Moles

	Tce               6.173e-02   6.173e-02

----------------------------Description of solution----------------------------

                                       pH  =   7.000      Charge balance
                                       pe  =  11.565      Adjusted to redox equilibrium
      Specific Conductance (µS/cm,  25°C)  = 0
                          Density (g/cm³)  =   1.00513
                               Volume (L)  =   1.00297
                        Activity of water  =   0.999
                 Ionic strength (mol/kgw)  =   1.006e-07
                       Mass of water (kg)  =   1.000e+00
                 Total alkalinity (eq/kg)  =   1.042e-09
                         Temperature (°C)  =  25.00
                  Electrical balance (eq)  =  -1.042e-09
 Percent error, 100*(Cat-|An|)/(Cat+|An|)  =  -0.52
                               Iterations  =  16
                                  Total H  = 1.110124e+02
                                  Total O  = 5.550622e+01

----------------------------Distribution of species----------------------------

                                               Log       Log       Log    mole V
   Species          Molality    Activity  Molality  Activity     Gamma   cm³/mol

   OH-             1.011e-07   1.011e-07    -6.995    -6.995    -0.000     -4.14
   H+              1.001e-07   1.000e-07    -7.000    -7.000    -0.000      0.00
   H2O             5.551e+01   9.990e-01     1.744    -0.000     0.000     18.07
H(0)          0.000e+00
   H2              0.000e+00   0.000e+00   -40.280   -40.280     0.000     28.61
O(0)          3.026e-12
   O2              1.513e-12   1.513e-12   -11.820   -11.820     0.000     30.40
Tce           6.173e-02
   Tce             6.173e-02   6.173e-02    -1.209    -1.209     0.000     (0)  

------------------------------Saturation indices-------------------------------

  Phase               SI** log IAP   log K(298 K,   1 atm)

  H2(g)           -37.18    -40.28   -3.10  H2
  H2O(g)           -1.50     -0.00    1.50  H2O
  O2(g)            -8.93    -11.82   -2.89  O2

**For a gas, SI = log10(fugacity). Fugacity = pressure * phi / 1 atm.
  For ideal gases, phi = 1.

Reaction step 14.

Using solution 1.	
Using kinetics 1.	

Kinetics 1.	

	Time step: 36 seconds  (Incremented time: 504 seconds)

	Rate name       Delta Moles Total Moles   Reactant        Coefficient

	S_degradation     2.342e-03   4.194e-02   Tce                       1

-----------------------------Solution composition------------------------------

	Elements           Molality       Moles

	Tce               5.939e-02   5.939e-02

----------------------------Description of solution----------------------------

                                       pH  =   7.000      Charge balance
                                       pe  =  11.565      Adjusted to redox equilibrium
      Specific Conductance (µS/cm,  25°C)  = 0
                          Density (g/cm³)  =   1.00482
                               Volume (L)  =   1.00297
                        Activity of water  =   0.999
                 Ionic strength (mol/kgw)  =   1.006e-07
                       Mass of water (kg)  =   1.000e+00
                 Total alkalinity (eq/kg)  =   1.042e-09
                         Temperature (°C)  =  25.00
                  Electrical balance (eq)  =  -1.042e-09
 Percent error, 100*(Cat-|An|)/(Cat+|An|)  =  -0.52
                               Iterations  =  16
                                  Total H  = 1.110124e+02
                                  Total O  = 5.550622e+01

----------------------------Distribution of species----------------------------

                                               Log       Log       Log    mole V
   Species          Molality    Activity  Molality  Activity     Gamma   cm³/mol

   OH-             1.011e-07   1.011e-07    -6.995    -6.995    -0.000     -4.14
   H+              1.001e-07   1.000e-07    -7.000    -7.000    -0.000      0.00
   H2O             5.551e+01   9.990e-01     1.744    -0.000     0.000     18.07
H(0)          0.000e+00
   H2              0.000e+00   0.000e+00   -40.280   -40.280     0.000     28.61
O(0)          3.026e-12
   O2              1.513e-12   1.513e-12   -11.820   -11.820     0.000     30.40
Tce           5.939e-02
   Tce             5.939e-02   5.939e-02    -1.226    -1.226     0.000     (0)  

------------------------------Saturation indices-------------------------------

  Phase               SI** log IAP   log K(298 K,   1 atm)

  H2(g)           -37.18    -40.28   -3.10  H2
  H2O(g)           -1.50     -0.00    1.50  H2O
  O2(g)            -8.93    -11.82   -2.89  O2

**For a gas, SI = log10(fugacity). Fugacity = pressure * phi / 1 atm.
  For ideal gases, phi = 1.

Reaction step 15.

Using solution 1.	
Using kinetics 1.	

Kinetics 1.	

	Time step: 36 seconds  (Incremented time: 540 seconds)

	Rate name       Delta Moles Total Moles   Reactant        Coefficient

	S_degradation     2.257e-03   4.420e-02   Tce                       1

-----------------------------Solution composition------------------------------

	Elements           Molality       Moles

	Tce               5.714e-02   5.714e-02

----------------------------Description of solution----------------------------

                                       pH  =   7.000      Charge balance
                                       pe  =  11.565      Adjusted to redox equilibrium
      Specific Conductance (µS/cm,  25°C)  = 0
                          Density (g/cm³)  =   1.00453
                               Volume (L)  =   1.00297
                        Activity of water  =   0.999
                 Ionic strength (mol/kgw)  =   1.006e-07
                       Mass of water (kg)  =   1.000e+00
                 Total alkalinity (eq/kg)  =   1.042e-09
                         Temperature (°C)  =  25.00
                  Electrical balance (eq)  =  -1.042e-09
 Percent error, 100*(Cat-|An|)/(Cat+|An|)  =  -0.52
                               Iterations  =  16
                                  Total H  = 1.110124e+02
                                  Total O  = 5.550622e+01

----------------------------Distribution of species----------------------------

                                               Log       Log       Log    mole V
   Species          Molality    Activity  Molality  Activity     Gamma   cm³/mol

   OH-             1.011e-07   1.011e-07    -6.995    -6.995    -0.000     -4.14
   H+              1.001e-07   1.000e-07    -7.000    -7.000    -0.000      0.00
   H2O             5.551e+01   9.990e-01     1.744    -0.000     0.000     18.07
H(0)          0.000e+00
   H2              0.000e+00   0.000e+00   -40.280   -40.280     0.000     28.61
O(0)          3.026e-12
   O2              1.513e-12   1.513e-12   -11.820   -11.820     0.000     30.40
Tce           5.714e-02
   Tce             5.714e-02   5.714e-02    -1.243    -1.243     0.000     (0)  

------------------------------Saturation indices-------------------------------

  Phase               SI** log IAP   log K(298 K,   1 atm)

  H2(g)           -37.18    -40.28   -3.10  H2
  H2O(g)           -1.50     -0.00    1.50  H2O
  O2(g)            -8.93    -11.82   -2.89  O2

**For a gas, SI = log10(fugacity). Fugacity = pressure * phi / 1 atm.
  For ideal gases, phi = 1.

Reaction step 16.

Using solution 1.	
Using kinetics 1.	

Kinetics 1.	

	Time step: 36 seconds  (Incremented time: 576 seconds)

	Rate name       Delta Moles Total Moles   Reactant        Coefficient

	S_degradation     2.174e-03   4.637e-02   Tce                       1

-----------------------------Solution composition------------------------------

	Elements           Molality       Moles

	Tce               5.496e-02   5.496e-02

----------------------------Description of solution----------------------------

                                       pH  =   7.000      Charge balance
                                       pe  =  11.565      Adjusted to redox equilibrium
      Specific Conductance (µS/cm,  25°C)  = 0
                          Density (g/cm³)  =   1.00424
                               Volume (L)  =   1.00297
                        Activity of water  =   0.999
                 Ionic strength (mol/kgw)  =   1.006e-07
                       Mass of water (kg)  =   1.000e+00
                 Total alkalinity (eq/kg)  =   1.042e-09
                         Temperature (°C)  =  25.00
                  Electrical balance (eq)  =  -1.042e-09
 Percent error, 100*(Cat-|An|)/(Cat+|An|)  =  -0.52
                               Iterations  =  16
                                  Total H  = 1.110124e+02
                                  Total O  = 5.550622e+01

----------------------------Distribution of species----------------------------

                                               Log       Log       Log    mole V
   Species          Molality    Activity  Molality  Activity     Gamma   cm³/mol

   OH-             1.011e-07   1.011e-07    -6.995    -6.995    -0.000     -4.14
   H+              1.001e-07   1.000e-07    -7.000    -7.000    -0.000      0.00
   H2O             5.551e+01   9.991e-01     1.744    -0.000     0.000     18.07
H(0)          0.000e+00
   H2              0.000e+00   0.000e+00   -40.280   -40.280     0.000     28.61
O(0)          3.026e-12
   O2              1.513e-12   1.513e-12   -11.820   -11.820     0.000     30.40
Tce           5.496e-02
   Tce             5.496e-02   5.496e-02    -1.260    -1.260     0.000     (0)  

------------------------------Saturation indices-------------------------------

  Phase               SI** log IAP   log K(298 K,   1 atm)

  H2(g)           -37.18    -40.28   -3.10  H2
  H2O(g)           -1.50     -0.00    1.50  H2O
  O2(g)            -8.93    -11.82   -2.89  O2

**For a gas, SI = log10(fugacity). Fugacity = pressure * phi / 1 atm.
  For ideal gases, phi = 1.

Reaction step 17.

Using solution 1.	
Using kinetics 1.	

Kinetics 1.	

	Time step: 36 seconds  (Incremented time: 612 seconds)

	Rate name       Delta Moles Total Moles   Reactant        Coefficient

	S_degradation     2.095e-03   4.847e-02   Tce                       1

-----------------------------Solution composition------------------------------

	Elements           Molality       Moles

	Tce               5.287e-02   5.287e-02

----------------------------Description of solution----------------------------

                                       pH  =   7.000      Charge balance
                                       pe  =  11.565      Adjusted to redox equilibrium
      Specific Conductance (µS/cm,  25°C)  = 0
                          Density (g/cm³)  =   1.00397
                               Volume (L)  =   1.00297
                        Activity of water  =   0.999
                 Ionic strength (mol/kgw)  =   1.006e-07
                       Mass of water (kg)  =   1.000e+00
                 Total alkalinity (eq/kg)  =   1.042e-09
                         Temperature (°C)  =  25.00
                  Electrical balance (eq)  =  -1.042e-09
 Percent error, 100*(Cat-|An|)/(Cat+|An|)  =  -0.52
                               Iterations  =  16
                                  Total H  = 1.110124e+02
                                  Total O  = 5.550622e+01

----------------------------Distribution of species----------------------------

                                               Log       Log       Log    mole V
   Species          Molality    Activity  Molality  Activity     Gamma   cm³/mol

   OH-             1.011e-07   1.011e-07    -6.995    -6.995    -0.000     -4.14
   H+              1.001e-07   1.000e-07    -7.000    -7.000    -0.000      0.00
   H2O             5.551e+01   9.991e-01     1.744    -0.000     0.000     18.07
H(0)          0.000e+00
   H2              0.000e+00   0.000e+00   -40.280   -40.280     0.000     28.61
O(0)          3.026e-12
   O2              1.513e-12   1.513e-12   -11.820   -11.820     0.000     30.40
Tce           5.287e-02
   Tce             5.287e-02   5.287e-02    -1.277    -1.277     0.000     (0)  

------------------------------Saturation indices-------------------------------

  Phase               SI** log IAP   log K(298 K,   1 atm)

  H2(g)           -37.18    -40.28   -3.10  H2
  H2O(g)           -1.50     -0.00    1.50  H2O
  O2(g)            -8.93    -11.82   -2.89  O2

**For a gas, SI = log10(fugacity). Fugacity = pressure * phi / 1 atm.
  For ideal gases, phi = 1.

Reaction step 18.

Using solution 1.	
Using kinetics 1.	

Kinetics 1.	

	Time step: 36 seconds  (Incremented time: 648 seconds)

	Rate name       Delta Moles Total Moles   Reactant        Coefficient

	S_degradation     2.018e-03   5.048e-02   Tce                       1

-----------------------------Solution composition------------------------------

	Elements           Molality       Moles

	Tce               5.085e-02   5.085e-02

----------------------------Description of solution----------------------------

                                       pH  =   7.000      Charge balance
                                       pe  =  11.565      Adjusted to redox equilibrium
      Specific Conductance (µS/cm,  25°C)  = 0
                          Density (g/cm³)  =   1.00370
                               Volume (L)  =   1.00297
                        Activity of water  =   0.999
                 Ionic strength (mol/kgw)  =   1.006e-07
                       Mass of water (kg)  =   1.000e+00
                 Total alkalinity (eq/kg)  =   1.042e-09
                         Temperature (°C)  =  25.00
                  Electrical balance (eq)  =  -1.042e-09
 Percent error, 100*(Cat-|An|)/(Cat+|An|)  =  -0.52
                               Iterations  =  16
                                  Total H  = 1.110124e+02
                                  Total O  = 5.550622e+01

----------------------------Distribution of species----------------------------

                                               Log       Log       Log    mole V
   Species          Molality    Activity  Molality  Activity     Gamma   cm³/mol

   OH-             1.011e-07   1.011e-07    -6.995    -6.995    -0.000     -4.14
   H+              1.001e-07   1.000e-07    -7.000    -7.000    -0.000      0.00
   H2O             5.551e+01   9.991e-01     1.744    -0.000     0.000     18.07
H(0)          0.000e+00
   H2              0.000e+00   0.000e+00   -40.280   -40.280     0.000     28.61
O(0)          3.026e-12
   O2              1.513e-12   1.513e-12   -11.820   -11.820     0.000     30.40
Tce           5.085e-02
   Tce             5.085e-02   5.085e-02    -1.294    -1.294     0.000     (0)  

------------------------------Saturation indices-------------------------------

  Phase               SI** log IAP   log K(298 K,   1 atm)

  H2(g)           -37.18    -40.28   -3.10  H2
  H2O(g)           -1.50     -0.00    1.50  H2O
  O2(g)            -8.93    -11.82   -2.89  O2

**For a gas, SI = log10(fugacity). Fugacity = pressure * phi / 1 atm.
  For ideal gases, phi = 1.

Reaction step 19.

Using solution 1.	
Using kinetics 1.	

Kinetics 1.	

	Time step: 36 seconds  (Incremented time: 684 seconds)

	Rate name       Delta Moles Total Moles   Reactant        Coefficient

	S_degradation     1.944e-03   5.243e-02   Tce                       1

-----------------------------Solution composition------------------------------

	Elements           Molality       Moles

	Tce               4.890e-02   4.890e-02

----------------------------Description of solution----------------------------

                                       pH  =   7.000      Charge balance
                                       pe  =  11.565      Adjusted to redox equilibrium
      Specific Conductance (µS/cm,  25°C)  = 0
                          Density (g/cm³)  =   1.00345
                               Volume (L)  =   1.00297
                        Activity of water  =   0.999
                 Ionic strength (mol/kgw)  =   1.006e-07
                       Mass of water (kg)  =   1.000e+00
                 Total alkalinity (eq/kg)  =   1.042e-09
                         Temperature (°C)  =  25.00
                  Electrical balance (eq)  =  -1.042e-09
 Percent error, 100*(Cat-|An|)/(Cat+|An|)  =  -0.52
                               Iterations  =  16
                                  Total H  = 1.110124e+02
                                  Total O  = 5.550622e+01

----------------------------Distribution of species----------------------------

                                               Log       Log       Log    mole V
   Species          Molality    Activity  Molality  Activity     Gamma   cm³/mol

   OH-             1.011e-07   1.011e-07    -6.995    -6.995    -0.000     -4.14
   H+              1.001e-07   1.000e-07    -7.000    -7.000    -0.000      0.00
   H2O             5.551e+01   9.992e-01     1.744    -0.000     0.000     18.07
H(0)          0.000e+00
   H2              0.000e+00   0.000e+00   -40.280   -40.280     0.000     28.61
O(0)          3.019e-12
   O2              1.509e-12   1.509e-12   -11.821   -11.821     0.000     30.40
Tce           4.890e-02
   Tce             4.890e-02   4.890e-02    -1.311    -1.311     0.000     (0)  

------------------------------Saturation indices-------------------------------

  Phase               SI** log IAP   log K(298 K,   1 atm)

  H2(g)           -37.18    -40.28   -3.10  H2
  H2O(g)           -1.50     -0.00    1.50  H2O
  O2(g)            -8.93    -11.82   -2.89  O2

**For a gas, SI = log10(fugacity). Fugacity = pressure * phi / 1 atm.
  For ideal gases, phi = 1.

Reaction step 20.

Using solution 1.	
Using kinetics 1.	

Kinetics 1.	

	Time step: 36 seconds  (Incremented time: 720 seconds)

	Rate name       Delta Moles Total Moles   Reactant        Coefficient

	S_degradation     1.872e-03   5.430e-02   Tce                       1

-----------------------------Solution composition------------------------------

	Elements           Molality       Moles

	Tce               4.703e-02   4.703e-02

----------------------------Description of solution----------------------------

                                       pH  =   7.000      Charge balance
                                       pe  =  11.565      Adjusted to redox equilibrium
      Specific Conductance (µS/cm,  25°C)  = 0
                          Density (g/cm³)  =   1.00320
                               Volume (L)  =   1.00297
                        Activity of water  =   0.999
                 Ionic strength (mol/kgw)  =   1.006e-07
                       Mass of water (kg)  =   1.000e+00
                 Total alkalinity (eq/kg)  =   1.042e-09
                         Temperature (°C)  =  25.00
                  Electrical balance (eq)  =  -1.042e-09
 Percent error, 100*(Cat-|An|)/(Cat+|An|)  =  -0.52
                               Iterations  =  16
                                  Total H  = 1.110124e+02
                                  Total O  = 5.550622e+01

----------------------------Distribution of species----------------------------

                                               Log       Log       Log    mole V
   Species          Molality    Activity  Molality  Activity     Gamma   cm³/mol

   OH-             1.011e-07   1.011e-07    -6.995    -6.995    -0.000     -4.14
   H+              1.001e-07   1.000e-07    -7.000    -7.000    -0.000      0.00
   H2O             5.551e+01   9.992e-01     1.744    -0.000     0.000     18.07
H(0)          0.000e+00
   H2              0.000e+00   0.000e+00   -40.280   -40.280     0.000     28.61
O(0)          3.019e-12
   O2              1.509e-12   1.509e-12   -11.821   -11.821     0.000     30.40
Tce           4.703e-02
   Tce             4.703e-02   4.703e-02    -1.328    -1.328     0.000     (0)  

------------------------------Saturation indices-------------------------------

  Phase               SI** log IAP   log K(298 K,   1 atm)

  H2(g)           -37.18    -40.28   -3.10  H2
  H2O(g)           -1.50     -0.00    1.50  H2O
  O2(g)            -8.93    -11.82   -2.89  O2

**For a gas, SI = log10(fugacity). Fugacity = pressure * phi / 1 atm.
  For ideal gases, phi = 1.

Reaction step 21.

Using solution 1.	
Using kinetics 1.	

Kinetics 1.	

	Time step: 36 seconds  (Incremented time: 756 seconds)

	Rate name       Delta Moles Total Moles   Reactant        Coefficient

	S_degradation     1.803e-03   5.610e-02   Tce                       1

-----------------------------Solution composition------------------------------

	Elements           Molality       Moles

	Tce               4.523e-02   4.523e-02

----------------------------Description of solution----------------------------

                                       pH  =   7.000      Charge balance
                                       pe  =  11.565      Adjusted to redox equilibrium
      Specific Conductance (µS/cm,  25°C)  = 0
                          Density (g/cm³)  =   1.00297
                               Volume (L)  =   1.00297
                        Activity of water  =   0.999
                 Ionic strength (mol/kgw)  =   1.006e-07
                       Mass of water (kg)  =   1.000e+00
                 Total alkalinity (eq/kg)  =   1.042e-09
                         Temperature (°C)  =  25.00
                  Electrical balance (eq)  =  -1.042e-09
 Percent error, 100*(Cat-|An|)/(Cat+|An|)  =  -0.52
                               Iterations  =  16
                                  Total H  = 1.110124e+02
                                  Total O  = 5.550622e+01

----------------------------Distribution of species----------------------------

                                               Log       Log       Log    mole V
   Species          Molality    Activity  Molality  Activity     Gamma   cm³/mol

   OH-             1.011e-07   1.011e-07    -6.995    -6.995    -0.000     -4.14
   H+              1.001e-07   1.000e-07    -7.000    -7.000    -0.000      0.00
   H2O             5.551e+01   9.992e-01     1.744    -0.000     0.000     18.07
H(0)          0.000e+00
   H2              0.000e+00   0.000e+00   -40.280   -40.280     0.000     28.61
O(0)          3.019e-12
   O2              1.509e-12   1.509e-12   -11.821   -11.821     0.000     30.40
Tce           4.523e-02
   Tce             4.523e-02   4.523e-02    -1.345    -1.345     0.000     (0)  

------------------------------Saturation indices-------------------------------

  Phase               SI** log IAP   log K(298 K,   1 atm)

  H2(g)           -37.18    -40.28   -3.10  H2
  H2O(g)           -1.50     -0.00    1.50  H2O
  O2(g)            -8.93    -11.82   -2.89  O2

**For a gas, SI = log10(fugacity). Fugacity = pressure * phi / 1 atm.
  For ideal gases, phi = 1.

Reaction step 22.

Using solution 1.	
Using kinetics 1.	

Kinetics 1.	

	Time step: 36 seconds  (Incremented time: 792 seconds)

	Rate name       Delta Moles Total Moles   Reactant        Coefficient

	S_degradation     1.736e-03   5.784e-02   Tce                       1

-----------------------------Solution composition------------------------------

	Elements           Molality       Moles

	Tce               4.349e-02   4.349e-02

----------------------------Description of solution----------------------------

                                       pH  =   7.000      Charge balance
                                       pe  =  11.565      Adjusted to redox equilibrium
      Specific Conductance (µS/cm,  25°C)  = 0
                          Density (g/cm³)  =   1.00274
                               Volume (L)  =   1.00297
                        Activity of water  =   0.999
                 Ionic strength (mol/kgw)  =   1.006e-07
                       Mass of water (kg)  =   1.000e+00
                 Total alkalinity (eq/kg)  =   1.042e-09
                         Temperature (°C)  =  25.00
                  Electrical balance (eq)  =  -1.042e-09
 Percent error, 100*(Cat-|An|)/(Cat+|An|)  =  -0.52
                               Iterations  =  16
                                  Total H  = 1.110124e+02
                                  Total O  = 5.550622e+01

----------------------------Distribution of species----------------------------

                                               Log       Log       Log    mole V
   Species          Molality    Activity  Molality  Activity     Gamma   cm³/mol

   OH-             1.011e-07   1.011e-07    -6.995    -6.995    -0.000     -4.14
   H+              1.001e-07   1.000e-07    -7.000    -7.000    -0.000      0.00
   H2O             5.551e+01   9.993e-01     1.744    -0.000     0.000     18.07
H(0)          0.000e+00
   H2              0.000e+00   0.000e+00   -40.280   -40.280     0.000     28.61
O(0)          3.019e-12
   O2              1.509e-12   1.509e-12   -11.821   -11.821     0.000     30.40
Tce           4.349e-02
   Tce             4.349e-02   4.349e-02    -1.362    -1.362     0.000     (0)  

------------------------------Saturation indices-------------------------------

  Phase               SI** log IAP   log K(298 K,   1 atm)

  H2(g)           -37.18    -40.28   -3.10  H2
  H2O(g)           -1.50     -0.00    1.50  H2O
  O2(g)            -8.93    -11.82   -2.89  O2

**For a gas, SI = log10(fugacity). Fugacity = pressure * phi / 1 atm.
  For ideal gases, phi = 1.

Reaction step 23.

Using solution 1.	
Using kinetics 1.	

Kinetics 1.	

	Time step: 36 seconds  (Incremented time: 828 seconds)

	Rate name       Delta Moles Total Moles   Reactant        Coefficient

	S_degradation     1.672e-03   5.951e-02   Tce                       1

-----------------------------Solution composition------------------------------

	Elements           Molality       Moles

	Tce               4.182e-02   4.182e-02

----------------------------Description of solution----------------------------

                                       pH  =   7.000      Charge balance
                                       pe  =  11.565      Adjusted to redox equilibrium
      Specific Conductance (µS/cm,  25°C)  = 0
                          Density (g/cm³)  =   1.00252
                               Volume (L)  =   1.00297
                        Activity of water  =   0.999
                 Ionic strength (mol/kgw)  =   1.006e-07
                       Mass of water (kg)  =   1.000e+00
                 Total alkalinity (eq/kg)  =   1.042e-09
                         Temperature (°C)  =  25.00
                  Electrical balance (eq)  =  -1.042e-09
 Percent error, 100*(Cat-|An|)/(Cat+|An|)  =  -0.52
                               Iterations  =  16
                                  Total H  = 1.110124e+02
                                  Total O  = 5.550622e+01

----------------------------Distribution of species----------------------------

                                               Log       Log       Log    mole V
   Species          Molality    Activity  Molality  Activity     Gamma   cm³/mol

   OH-             1.011e-07   1.011e-07    -6.995    -6.995    -0.000     -4.14
   H+              1.001e-07   1.001e-07    -7.000    -7.000    -0.000      0.00
   H2O             5.551e+01   9.993e-01     1.744    -0.000     0.000     18.07
H(0)          0.000e+00
   H2              0.000e+00   0.000e+00   -40.279   -40.279     0.000     28.61
O(0)          3.012e-12
   O2              1.506e-12   1.506e-12   -11.822   -11.822     0.000     30.40
Tce           4.182e-02
   Tce             4.182e-02   4.182e-02    -1.379    -1.379     0.000     (0)  

------------------------------Saturation indices-------------------------------

  Phase               SI** log IAP   log K(298 K,   1 atm)

  H2(g)           -37.18    -40.28   -3.10  H2
  H2O(g)           -1.50     -0.00    1.50  H2O
  O2(g)            -8.93    -11.82   -2.89  O2

**For a gas, SI = log10(fugacity). Fugacity = pressure * phi / 1 atm.
  For ideal gases, phi = 1.

Reaction step 24.

Using solution 1.	
Using kinetics 1.	

Kinetics 1.	

	Time step: 36 seconds  (Incremented time: 864 seconds)

	Rate name       Delta Moles Total Moles   Reactant        Coefficient

	S_degradation     1.609e-03   6.112e-02   Tce                       1

-----------------------------Solution composition------------------------------

	Elements           Molality       Moles

	Tce               4.021e-02   4.021e-02

----------------------------Description of solution----------------------------

                                       pH  =   7.000      Charge balance
                                       pe  =  11.565      Adjusted to redox equilibrium
      Specific Conductance (µS/cm,  25°C)  = 0
                          Density (g/cm³)  =   1.00231
                               Volume (L)  =   1.00297
                        Activity of water  =   0.999
                 Ionic strength (mol/kgw)  =   1.006e-07
                       Mass of water (kg)  =   1.000e+00
                 Total alkalinity (eq/kg)  =   1.042e-09
                         Temperature (°C)  =  25.00
                  Electrical balance (eq)  =  -1.042e-09
 Percent error, 100*(Cat-|An|)/(Cat+|An|)  =  -0.52
                               Iterations  =  16
                                  Total H  = 1.110124e+02
                                  Total O  = 5.550622e+01

----------------------------Distribution of species----------------------------

                                               Log       Log       Log    mole V
   Species          Molality    Activity  Molality  Activity     Gamma   cm³/mol

   OH-             1.011e-07   1.011e-07    -6.995    -6.995    -0.000     -4.14
   H+              1.001e-07   1.001e-07    -7.000    -7.000    -0.000      0.00
   H2O             5.551e+01   9.993e-01     1.744    -0.000     0.000     18.07
H(0)          0.000e+00
   H2              0.000e+00   0.000e+00   -40.280   -40.280     0.000     28.61
O(0)          3.019e-12
   O2              1.509e-12   1.509e-12   -11.821   -11.821     0.000     30.40
Tce           4.021e-02
   Tce             4.021e-02   4.021e-02    -1.396    -1.396     0.000     (0)  

------------------------------Saturation indices-------------------------------

  Phase               SI** log IAP   log K(298 K,   1 atm)

  H2(g)           -37.18    -40.28   -3.10  H2
  H2O(g)           -1.50     -0.00    1.50  H2O
  O2(g)            -8.93    -11.82   -2.89  O2

**For a gas, SI = log10(fugacity). Fugacity = pressure * phi / 1 atm.
  For ideal gases, phi = 1.

Reaction step 25.

Using solution 1.	
Using kinetics 1.	

Kinetics 1.	

	Time step: 36 seconds  (Incremented time: 900 seconds)

	Rate name       Delta Moles Total Moles   Reactant        Coefficient

	S_degradation     1.549e-03   6.267e-02   Tce                       1

-----------------------------Solution composition------------------------------

	Elements           Molality       Moles

	Tce               3.866e-02   3.866e-02

----------------------------Description of solution----------------------------

                                       pH  =   7.000      Charge balance
                                       pe  =  11.565      Adjusted to redox equilibrium
      Specific Conductance (µS/cm,  25°C)  = 0
                          Density (g/cm³)  =   1.00211
                               Volume (L)  =   1.00297
                        Activity of water  =   0.999
                 Ionic strength (mol/kgw)  =   1.006e-07
                       Mass of water (kg)  =   1.000e+00
                 Total alkalinity (eq/kg)  =   1.042e-09
                         Temperature (°C)  =  25.00
                  Electrical balance (eq)  =  -1.042e-09
 Percent error, 100*(Cat-|An|)/(Cat+|An|)  =  -0.52
                               Iterations  =  16
                                  Total H  = 1.110124e+02
                                  Total O  = 5.550622e+01

----------------------------Distribution of species----------------------------

                                               Log       Log       Log    mole V
   Species          Molality    Activity  Molality  Activity     Gamma   cm³/mol

   OH-             1.011e-07   1.011e-07    -6.995    -6.995    -0.000     -4.14
   H+              1.001e-07   1.001e-07    -7.000    -7.000    -0.000      0.00
   H2O             5.551e+01   9.993e-01     1.744    -0.000     0.000     18.07
H(0)          0.000e+00
   H2              0.000e+00   0.000e+00   -40.280   -40.280     0.000     28.61
O(0)          3.026e-12
   O2              1.513e-12   1.513e-12   -11.820   -11.820     0.000     30.40
Tce           3.866e-02
   Tce             3.866e-02   3.866e-02    -1.413    -1.413     0.000     (0)  

------------------------------Saturation indices-------------------------------

  Phase               SI** log IAP   log K(298 K,   1 atm)

  H2(g)           -37.18    -40.28   -3.10  H2
  H2O(g)           -1.50     -0.00    1.50  H2O
  O2(g)            -8.93    -11.82   -2.89  O2

**For a gas, SI = log10(fugacity). Fugacity = pressure * phi / 1 atm.
  For ideal gases, phi = 1.

Reaction step 26.

Using solution 1.	
Using kinetics 1.	

Kinetics 1.	

	Time step: 36 seconds  (Incremented time: 936 seconds)

	Rate name       Delta Moles Total Moles   Reactant        Coefficient

	S_degradation     1.491e-03   6.416e-02   Tce                       1

-----------------------------Solution composition------------------------------

	Elements           Molality       Moles

	Tce               3.717e-02   3.717e-02

----------------------------Description of solution----------------------------

                                       pH  =   7.000      Charge balance
                                       pe  =  11.565      Adjusted to redox equilibrium
      Specific Conductance (µS/cm,  25°C)  = 0
                          Density (g/cm³)  =   1.00191
                               Volume (L)  =   1.00297
                        Activity of water  =   0.999
                 Ionic strength (mol/kgw)  =   1.006e-07
                       Mass of water (kg)  =   1.000e+00
                 Total alkalinity (eq/kg)  =   1.042e-09
                         Temperature (°C)  =  25.00
                  Electrical balance (eq)  =  -1.042e-09
 Percent error, 100*(Cat-|An|)/(Cat+|An|)  =  -0.52
                               Iterations  =  16
                                  Total H  = 1.110124e+02
                                  Total O  = 5.550622e+01

----------------------------Distribution of species----------------------------

                                               Log       Log       Log    mole V
   Species          Molality    Activity  Molality  Activity     Gamma   cm³/mol

   OH-             1.011e-07   1.011e-07    -6.995    -6.995    -0.000     -4.14
   H+              1.001e-07   1.001e-07    -7.000    -7.000    -0.000      0.00
   H2O             5.551e+01   9.994e-01     1.744    -0.000     0.000     18.07
H(0)          0.000e+00
   H2              0.000e+00   0.000e+00   -40.280   -40.280     0.000     28.61
O(0)          3.019e-12
   O2              1.509e-12   1.509e-12   -11.821   -11.821     0.000     30.40
Tce           3.717e-02
   Tce             3.717e-02   3.717e-02    -1.430    -1.430     0.000     (0)  

------------------------------Saturation indices-------------------------------

  Phase               SI** log IAP   log K(298 K,   1 atm)

  H2(g)           -37.18    -40.28   -3.10  H2
  H2O(g)           -1.50     -0.00    1.50  H2O
  O2(g)            -8.93    -11.82   -2.89  O2

**For a gas, SI = log10(fugacity). Fugacity = pressure * phi / 1 atm.
  For ideal gases, phi = 1.

Reaction step 27.

Using solution 1.	
Using kinetics 1.	

Kinetics 1.	

	Time step: 36 seconds  (Incremented time: 972 seconds)

	Rate name       Delta Moles Total Moles   Reactant        Coefficient

	S_degradation     1.435e-03   6.560e-02   Tce                       1

-----------------------------Solution composition------------------------------

	Elements           Molality       Moles

	Tce               3.574e-02   3.574e-02

----------------------------Description of solution----------------------------

                                       pH  =   7.000      Charge balance
                                       pe  =  11.565      Adjusted to redox equilibrium
      Specific Conductance (µS/cm,  25°C)  = 0
                          Density (g/cm³)  =   1.00172
                               Volume (L)  =   1.00297
                        Activity of water  =   0.999
                 Ionic strength (mol/kgw)  =   1.006e-07
                       Mass of water (kg)  =   1.000e+00
                 Total alkalinity (eq/kg)  =   1.042e-09
                         Temperature (°C)  =  25.00
                  Electrical balance (eq)  =  -1.042e-09
 Percent error, 100*(Cat-|An|)/(Cat+|An|)  =  -0.52
                               Iterations  =  16
                                  Total H  = 1.110124e+02
                                  Total O  = 5.550622e+01

----------------------------Distribution of species----------------------------

                                               Log       Log       Log    mole V
   Species          Molality    Activity  Molality  Activity     Gamma   cm³/mol

   OH-             1.011e-07   1.011e-07    -6.995    -6.995    -0.000     -4.14
   H+              1.001e-07   1.001e-07    -7.000    -7.000    -0.000      0.00
   H2O             5.551e+01   9.994e-01     1.744    -0.000     0.000     18.07
H(0)          0.000e+00
   H2              0.000e+00   0.000e+00   -40.280   -40.280     0.000     28.61
O(0)          3.026e-12
   O2              1.513e-12   1.513e-12   -11.820   -11.820     0.000     30.40
Tce           3.574e-02
   Tce             3.574e-02   3.574e-02    -1.447    -1.447     0.000     (0)  

------------------------------Saturation indices-------------------------------

  Phase               SI** log IAP   log K(298 K,   1 atm)

  H2(g)           -37.18    -40.28   -3.10  H2
  H2O(g)           -1.50     -0.00    1.50  H2O
  O2(g)            -8.93    -11.82   -2.89  O2

**For a gas, SI = log10(fugacity). Fugacity = pressure * phi / 1 atm.
  For ideal gases, phi = 1.

Reaction step 28.

Using solution 1.	
Using kinetics 1.	

Kinetics 1.	

	Time step: 36 seconds  (Incremented time: 1008 seconds)

	Rate name       Delta Moles Total Moles   Reactant        Coefficient

	S_degradation     1.381e-03   6.698e-02   Tce                       1

-----------------------------Solution composition------------------------------

	Elements           Molality       Moles

	Tce               3.435e-02   3.435e-02

----------------------------Description of solution----------------------------

                                       pH  =   7.000      Charge balance
                                       pe  =  11.565      Adjusted to redox equilibrium
      Specific Conductance (µS/cm,  25°C)  = 0
                          Density (g/cm³)  =   1.00154
                               Volume (L)  =   1.00297
                        Activity of water  =   0.999
                 Ionic strength (mol/kgw)  =   1.006e-07
                       Mass of water (kg)  =   1.000e+00
                 Total alkalinity (eq/kg)  =   1.042e-09
                         Temperature (°C)  =  25.00
                  Electrical balance (eq)  =  -1.042e-09
 Percent error, 100*(Cat-|An|)/(Cat+|An|)  =  -0.52
                               Iterations  =  16
                                  Total H  = 1.110124e+02
                                  Total O  = 5.550622e+01

----------------------------Distribution of species----------------------------

                                               Log       Log       Log    mole V
   Species          Molality    Activity  Molality  Activity     Gamma   cm³/mol

   OH-             1.011e-07   1.011e-07    -6.995    -6.995    -0.000     -4.14
   H+              1.001e-07   1.001e-07    -7.000    -7.000    -0.000      0.00
   H2O             5.551e+01   9.994e-01     1.744    -0.000     0.000     18.07
H(0)          0.000e+00
   H2              0.000e+00   0.000e+00   -40.280   -40.280     0.000     28.61
O(0)          3.026e-12
   O2              1.513e-12   1.513e-12   -11.820   -11.820     0.000     30.40
Tce           3.435e-02
   Tce             3.435e-02   3.435e-02    -1.464    -1.464     0.000     (0)  

------------------------------Saturation indices-------------------------------

  Phase               SI** log IAP   log K(298 K,   1 atm)

  H2(g)           -37.18    -40.28   -3.10  H2
  H2O(g)           -1.50     -0.00    1.50  H2O
  O2(g)            -8.93    -11.82   -2.89  O2

**For a gas, SI = log10(fugacity). Fugacity = pressure * phi / 1 atm.
  For ideal gases, phi = 1.

Reaction step 29.

Using solution 1.	
Using kinetics 1.	

Kinetics 1.	

	Time step: 36 seconds  (Incremented time: 1044 seconds)

	Rate name       Delta Moles Total Moles   Reactant        Coefficient

	S_degradation     1.329e-03   6.831e-02   Tce                       1

-----------------------------Solution composition------------------------------

	Elements           Molality       Moles

	Tce               3.302e-02   3.302e-02

----------------------------Description of solution----------------------------

                                       pH  =   7.000      Charge balance
                                       pe  =  11.565      Adjusted to redox equilibrium
      Specific Conductance (µS/cm,  25°C)  = 0
                          Density (g/cm³)  =   1.00137
                               Volume (L)  =   1.00297
                        Activity of water  =   0.999
                 Ionic strength (mol/kgw)  =   1.006e-07
                       Mass of water (kg)  =   1.000e+00
                 Total alkalinity (eq/kg)  =   1.042e-09
                         Temperature (°C)  =  25.00
                  Electrical balance (eq)  =  -1.042e-09
 Percent error, 100*(Cat-|An|)/(Cat+|An|)  =  -0.52
                               Iterations  =  16
                                  Total H  = 1.110124e+02
                                  Total O  = 5.550622e+01

----------------------------Distribution of species----------------------------

                                               Log       Log       Log    mole V
   Species          Molality    Activity  Molality  Activity     Gamma   cm³/mol

   OH-             1.011e-07   1.011e-07    -6.995    -6.995    -0.000     -4.14
   H+              1.001e-07   1.001e-07    -7.000    -7.000    -0.000      0.00
   H2O             5.551e+01   9.994e-01     1.744    -0.000     0.000     18.07
H(0)          0.000e+00
   H2              0.000e+00   0.000e+00   -40.280   -40.280     0.000     28.61
O(0)          3.026e-12
   O2              1.513e-12   1.513e-12   -11.820   -11.820     0.000     30.40
Tce           3.302e-02
   Tce             3.302e-02   3.302e-02    -1.481    -1.481     0.000     (0)  

------------------------------Saturation indices-------------------------------

  Phase               SI** log IAP   log K(298 K,   1 atm)

  H2(g)           -37.18    -40.28   -3.10  H2
  H2O(g)           -1.50     -0.00    1.50  H2O
  O2(g)            -8.93    -11.82   -2.89  O2

**For a gas, SI = log10(fugacity). Fugacity = pressure * phi / 1 atm.
  For ideal gases, phi = 1.

Reaction step 30.

Using solution 1.	
Using kinetics 1.	

Kinetics 1.	

	Time step: 36 seconds  (Incremented time: 1080 seconds)

	Rate name       Delta Moles Total Moles   Reactant        Coefficient

	S_degradation     1.279e-03   6.959e-02   Tce                       1

-----------------------------Solution composition------------------------------

	Elements           Molality       Moles

	Tce               3.175e-02   3.175e-02

----------------------------Description of solution----------------------------

                                       pH  =   7.000      Charge balance
                                       pe  =  11.565      Adjusted to redox equilibrium
      Specific Conductance (µS/cm,  25°C)  = 0
                          Density (g/cm³)  =   1.00120
                               Volume (L)  =   1.00297
                        Activity of water  =   0.999
                 Ionic strength (mol/kgw)  =   1.006e-07
                       Mass of water (kg)  =   1.000e+00
                 Total alkalinity (eq/kg)  =   1.042e-09
                         Temperature (°C)  =  25.00
                  Electrical balance (eq)  =  -1.042e-09
 Percent error, 100*(Cat-|An|)/(Cat+|An|)  =  -0.52
                               Iterations  =  16
[...]
                 Ionic strength (mol/kgw)  =   1.006e-07
                       Mass of water (kg)  =   1.000e+00
                 Total alkalinity (eq/kg)  =   1.042e-09
                         Temperature (°C)  =  25.00
                  Electrical balance (eq)  =  -1.042e-09
 Percent error, 100*(Cat-|An|)/(Cat+|An|)  =  -0.52
                               Iterations  =   0
                                  Total H  = 1.110124e+02
                                  Total O  = 5.550622e+01

----------------------------Distribution of species----------------------------

                                               Log       Log       Log    mole V
   Species          Molality    Activity  Molality  Activity     Gamma   cm³/mol

   OH-             1.012e-07   1.011e-07    -6.995    -6.995    -0.000     -4.14
   H+              1.001e-07   1.001e-07    -6.999    -7.000    -0.000      0.00
   H2O             5.551e+01   1.000e+00     1.744    -0.000     0.000     18.07
H(0)          0.000e+00
   H2              0.000e+00   0.000e+00   -40.288   -40.288     0.000     28.61
O(0)          3.140e-12
   O2              1.570e-12   1.570e-12   -11.804   -11.804     0.000     30.40
Tce           9.999e-04
   Tce             9.999e-04   9.999e-04    -3.000    -3.000     0.000     (0)  

------------------------------Saturation indices-------------------------------

  Phase               SI** log IAP   log K(298 K,   1 atm)

  H2(g)           -37.19    -40.29   -3.10  H2
  H2O(g)           -1.50     -0.00    1.50  H2O
  O2(g)            -8.91    -11.80   -2.89  O2

**For a gas, SI = log10(fugacity). Fugacity = pressure * phi / 1 atm.
  For ideal gases, phi = 1.

Reaction step 194.

Using solution 1.	
Using kinetics 1.	

Kinetics 1.	

	Time step: 36 seconds  (Incremented time: 6984 seconds)

	Rate name       Delta Moles Total Moles   Reactant        Coefficient

	S_degradation    -0.000e+00   1.003e-01   Tce                       1

-----------------------------Solution composition------------------------------

	Elements           Molality       Moles

	Tce               9.999e-04   9.999e-04

----------------------------Description of solution----------------------------

                                       pH  =   7.000      Charge balance
                                       pe  =  11.569      Adjusted to redox equilibrium
      Specific Conductance (µS/cm,  25°C)  = 0
                          Density (g/cm³)  =   0.99717
                               Volume (L)  =   1.00297
                        Activity of water  =   1.000
                 Ionic strength (mol/kgw)  =   1.006e-07
                       Mass of water (kg)  =   1.000e+00
                 Total alkalinity (eq/kg)  =   1.042e-09
                         Temperature (°C)  =  25.00
                  Electrical balance (eq)  =  -1.042e-09
 Percent error, 100*(Cat-|An|)/(Cat+|An|)  =  -0.52
                               Iterations  =   0
                                  Total H  = 1.110124e+02
                                  Total O  = 5.550622e+01

----------------------------Distribution of species----------------------------

                                               Log       Log       Log    mole V
   Species          Molality    Activity  Molality  Activity     Gamma   cm³/mol

   OH-             1.012e-07   1.011e-07    -6.995    -6.995    -0.000     -4.14
   H+              1.001e-07   1.001e-07    -6.999    -7.000    -0.000      0.00
   H2O             5.551e+01   1.000e+00     1.744    -0.000     0.000     18.07
H(0)          0.000e+00
   H2              0.000e+00   0.000e+00   -40.288   -40.288     0.000     28.61
O(0)          3.140e-12
   O2              1.570e-12   1.570e-12   -11.804   -11.804     0.000     30.40
Tce           9.999e-04
   Tce             9.999e-04   9.999e-04    -3.000    -3.000     0.000     (0)  

------------------------------Saturation indices-------------------------------

  Phase               SI** log IAP   log K(298 K,   1 atm)

  H2(g)           -37.19    -40.29   -3.10  H2
  H2O(g)           -1.50     -0.00    1.50  H2O
  O2(g)            -8.91    -11.80   -2.89  O2

**For a gas, SI = log10(fugacity). Fugacity = pressure * phi / 1 atm.
  For ideal gases, phi = 1.

Reaction step 195.

Using solution 1.	
Using kinetics 1.	

Kinetics 1.	

	Time step: 36 seconds  (Incremented time: 7020 seconds)

	Rate name       Delta Moles Total Moles   Reactant        Coefficient

	S_degradation    -0.000e+00   1.003e-01   Tce                       1

-----------------------------Solution composition------------------------------

	Elements           Molality       Moles

	Tce               9.999e-04   9.999e-04

----------------------------Description of solution----------------------------

                                       pH  =   7.000      Charge balance
                                       pe  =  11.569      Adjusted to redox equilibrium
      Specific Conductance (µS/cm,  25°C)  = 0
                          Density (g/cm³)  =   0.99717
                               Volume (L)  =   1.00297
                        Activity of water  =   1.000
                 Ionic strength (mol/kgw)  =   1.006e-07
                       Mass of water (kg)  =   1.000e+00
                 Total alkalinity (eq/kg)  =   1.042e-09
                         Temperature (°C)  =  25.00
                  Electrical balance (eq)  =  -1.042e-09
 Percent error, 100*(Cat-|An|)/(Cat+|An|)  =  -0.52
                               Iterations  =   0
                                  Total H  = 1.110124e+02
                                  Total O  = 5.550622e+01

----------------------------Distribution of species----------------------------

                                               Log       Log       Log    mole V
   Species          Molality    Activity  Molality  Activity     Gamma   cm³/mol

   OH-             1.012e-07   1.011e-07    -6.995    -6.995    -0.000     -4.14
   H+              1.001e-07   1.001e-07    -6.999    -7.000    -0.000      0.00
   H2O             5.551e+01   1.000e+00     1.744    -0.000     0.000     18.07
H(0)          0.000e+00
   H2              0.000e+00   0.000e+00   -40.288   -40.288     0.000     28.61
O(0)          3.140e-12
   O2              1.570e-12   1.570e-12   -11.804   -11.804     0.000     30.40
Tce           9.999e-04
   Tce             9.999e-04   9.999e-04    -3.000    -3.000     0.000     (0)  

------------------------------Saturation indices-------------------------------

  Phase               SI** log IAP   log K(298 K,   1 atm)

  H2(g)           -37.19    -40.29   -3.10  H2
  H2O(g)           -1.50     -0.00    1.50  H2O
  O2(g)            -8.91    -11.80   -2.89  O2

**For a gas, SI = log10(fugacity). Fugacity = pressure * phi / 1 atm.
  For ideal gases, phi = 1.

Reaction step 196.

Using solution 1.	
Using kinetics 1.	

Kinetics 1.	

	Time step: 36 seconds  (Incremented time: 7056 seconds)

	Rate name       Delta Moles Total Moles   Reactant        Coefficient

	S_degradation    -0.000e+00   1.003e-01   Tce                       1

-----------------------------Solution composition------------------------------

	Elements           Molality       Moles

	Tce               9.999e-04   9.999e-04

----------------------------Description of solution----------------------------

                                       pH  =   7.000      Charge balance
                                       pe  =  11.569      Adjusted to redox equilibrium
      Specific Conductance (µS/cm,  25°C)  = 0
                          Density (g/cm³)  =   0.99717
                               Volume (L)  =   1.00297
                        Activity of water  =   1.000
                 Ionic strength (mol/kgw)  =   1.006e-07
                       Mass of water (kg)  =   1.000e+00
                 Total alkalinity (eq/kg)  =   1.042e-09
                         Temperature (°C)  =  25.00
                  Electrical balance (eq)  =  -1.042e-09
 Percent error, 100*(Cat-|An|)/(Cat+|An|)  =  -0.52
                               Iterations  =   0
                                  Total H  = 1.110124e+02
                                  Total O  = 5.550622e+01

----------------------------Distribution of species----------------------------

                                               Log       Log       Log    mole V
   Species          Molality    Activity  Molality  Activity     Gamma   cm³/mol

   OH-             1.012e-07   1.011e-07    -6.995    -6.995    -0.000     -4.14
   H+              1.001e-07   1.001e-07    -6.999    -7.000    -0.000      0.00
   H2O             5.551e+01   1.000e+00     1.744    -0.000     0.000     18.07
H(0)          0.000e+00
   H2              0.000e+00   0.000e+00   -40.288   -40.288     0.000     28.61
O(0)          3.140e-12
   O2              1.570e-12   1.570e-12   -11.804   -11.804     0.000     30.40
Tce           9.999e-04
   Tce             9.999e-04   9.999e-04    -3.000    -3.000     0.000     (0)  

------------------------------Saturation indices-------------------------------

  Phase               SI** log IAP   log K(298 K,   1 atm)

  H2(g)           -37.19    -40.29   -3.10  H2
  H2O(g)           -1.50     -0.00    1.50  H2O
  O2(g)            -8.91    -11.80   -2.89  O2

**For a gas, SI = log10(fugacity). Fugacity = pressure * phi / 1 atm.
  For ideal gases, phi = 1.

Reaction step 197.

Using solution 1.	
Using kinetics 1.	

Kinetics 1.	

	Time step: 36 seconds  (Incremented time: 7092 seconds)

	Rate name       Delta Moles Total Moles   Reactant        Coefficient

	S_degradation    -0.000e+00   1.003e-01   Tce                       1

-----------------------------Solution composition------------------------------

	Elements           Molality       Moles

	Tce               9.999e-04   9.999e-04

----------------------------Description of solution----------------------------

                                       pH  =   7.000      Charge balance
                                       pe  =  11.569      Adjusted to redox equilibrium
      Specific Conductance (µS/cm,  25°C)  = 0
                          Density (g/cm³)  =   0.99717
                               Volume (L)  =   1.00297
                        Activity of water  =   1.000
                 Ionic strength (mol/kgw)  =   1.006e-07
                       Mass of water (kg)  =   1.000e+00
                 Total alkalinity (eq/kg)  =   1.042e-09
                         Temperature (°C)  =  25.00
                  Electrical balance (eq)  =  -1.042e-09
 Percent error, 100*(Cat-|An|)/(Cat+|An|)  =  -0.52
                               Iterations  =   0
                                  Total H  = 1.110124e+02
                                  Total O  = 5.550622e+01

----------------------------Distribution of species----------------------------

                                               Log       Log       Log    mole V
   Species          Molality    Activity  Molality  Activity     Gamma   cm³/mol

   OH-             1.012e-07   1.011e-07    -6.995    -6.995    -0.000     -4.14
   H+              1.001e-07   1.001e-07    -6.999    -7.000    -0.000      0.00
   H2O             5.551e+01   1.000e+00     1.744    -0.000     0.000     18.07
H(0)          0.000e+00
   H2              0.000e+00   0.000e+00   -40.288   -40.288     0.000     28.61
O(0)          3.140e-12
   O2              1.570e-12   1.570e-12   -11.804   -11.804     0.000     30.40
Tce           9.999e-04
   Tce             9.999e-04   9.999e-04    -3.000    -3.000     0.000     (0)  

------------------------------Saturation indices-------------------------------

  Phase               SI** log IAP   log K(298 K,   1 atm)

  H2(g)           -37.19    -40.29   -3.10  H2
  H2O(g)           -1.50     -0.00    1.50  H2O
  O2(g)            -8.91    -11.80   -2.89  O2

**For a gas, SI = log10(fugacity). Fugacity = pressure * phi / 1 atm.
  For ideal gases, phi = 1.

Reaction step 198.

Using solution 1.	
Using kinetics 1.	

Kinetics 1.	

	Time step: 36 seconds  (Incremented time: 7128 seconds)

	Rate name       Delta Moles Total Moles   Reactant        Coefficient

	S_degradation    -0.000e+00   1.003e-01   Tce                       1

-----------------------------Solution composition------------------------------

	Elements           Molality       Moles

	Tce               9.999e-04   9.999e-04

----------------------------Description of solution----------------------------

                                       pH  =   7.000      Charge balance
                                       pe  =  11.569      Adjusted to redox equilibrium
      Specific Conductance (µS/cm,  25°C)  = 0
                          Density (g/cm³)  =   0.99717
                               Volume (L)  =   1.00297
                        Activity of water  =   1.000
                 Ionic strength (mol/kgw)  =   1.006e-07
                       Mass of water (kg)  =   1.000e+00
                 Total alkalinity (eq/kg)  =   1.042e-09
                         Temperature (°C)  =  25.00
                  Electrical balance (eq)  =  -1.042e-09
 Percent error, 100*(Cat-|An|)/(Cat+|An|)  =  -0.52
                               Iterations  =   0
                                  Total H  = 1.110124e+02
                                  Total O  = 5.550622e+01

----------------------------Distribution of species----------------------------

                                               Log       Log       Log    mole V
   Species          Molality    Activity  Molality  Activity     Gamma   cm³/mol

   OH-             1.012e-07   1.011e-07    -6.995    -6.995    -0.000     -4.14
   H+              1.001e-07   1.001e-07    -6.999    -7.000    -0.000      0.00
   H2O             5.551e+01   1.000e+00     1.744    -0.000     0.000     18.07
H(0)          0.000e+00
   H2              0.000e+00   0.000e+00   -40.288   -40.288     0.000     28.61
O(0)          3.140e-12
   O2              1.570e-12   1.570e-12   -11.804   -11.804     0.000     30.40
Tce           9.999e-04
   Tce             9.999e-04   9.999e-04    -3.000    -3.000     0.000     (0)  

------------------------------Saturation indices-------------------------------

  Phase               SI** log IAP   log K(298 K,   1 atm)

  H2(g)           -37.19    -40.29   -3.10  H2
  H2O(g)           -1.50     -0.00    1.50  H2O
  O2(g)            -8.91    -11.80   -2.89  O2

**For a gas, SI = log10(fugacity). Fugacity = pressure * phi / 1 atm.
  For ideal gases, phi = 1.

Reaction step 199.

Using solution 1.	
Using kinetics 1.	

Kinetics 1.	

	Time step: 36 seconds  (Incremented time: 7164 seconds)

	Rate name       Delta Moles Total Moles   Reactant        Coefficient

	S_degradation    -0.000e+00   1.003e-01   Tce                       1

-----------------------------Solution composition------------------------------

	Elements           Molality       Moles

	Tce               9.999e-04   9.999e-04

----------------------------Description of solution----------------------------

                                       pH  =   7.000      Charge balance
                                       pe  =  11.569      Adjusted to redox equilibrium
      Specific Conductance (µS/cm,  25°C)  = 0
                          Density (g/cm³)  =   0.99717
                               Volume (L)  =   1.00297
                        Activity of water  =   1.000
                 Ionic strength (mol/kgw)  =   1.006e-07
                       Mass of water (kg)  =   1.000e+00
                 Total alkalinity (eq/kg)  =   1.042e-09
                         Temperature (°C)  =  25.00
                  Electrical balance (eq)  =  -1.042e-09
 Percent error, 100*(Cat-|An|)/(Cat+|An|)  =  -0.52
                               Iterations  =   0
                                  Total H  = 1.110124e+02
                                  Total O  = 5.550622e+01

----------------------------Distribution of species----------------------------

                                               Log       Log       Log    mole V
   Species          Molality    Activity  Molality  Activity     Gamma   cm³/mol

   OH-             1.012e-07   1.011e-07    -6.995    -6.995    -0.000     -4.14
   H+              1.001e-07   1.001e-07    -6.999    -7.000    -0.000      0.00
   H2O             5.551e+01   1.000e+00     1.744    -0.000     0.000     18.07
H(0)          0.000e+00
   H2              0.000e+00   0.000e+00   -40.288   -40.288     0.000     28.61
O(0)          3.140e-12
   O2              1.570e-12   1.570e-12   -11.804   -11.804     0.000     30.40
Tce           9.999e-04
   Tce             9.999e-04   9.999e-04    -3.000    -3.000     0.000     (0)  

------------------------------Saturation indices-------------------------------

  Phase               SI** log IAP   log K(298 K,   1 atm)

  H2(g)           -37.19    -40.29   -3.10  H2
  H2O(g)           -1.50     -0.00    1.50  H2O
  O2(g)            -8.91    -11.80   -2.89  O2

**For a gas, SI = log10(fugacity). Fugacity = pressure * phi / 1 atm.
  For ideal gases, phi = 1.

Reaction step 200.

Using solution 1.	
Using kinetics 1.	

Kinetics 1.	

	Time step: 36 seconds  (Incremented time: 7200 seconds)

	Rate name       Delta Moles Total Moles   Reactant        Coefficient

	S_degradation    -0.000e+00   1.003e-01   Tce                       1

-----------------------------Solution composition------------------------------

	Elements           Molality       Moles

	Tce               9.999e-04   9.999e-04

----------------------------Description of solution----------------------------

                                       pH  =   7.000      Charge balance
                                       pe  =  11.569      Adjusted to redox equilibrium
      Specific Conductance (µS/cm,  25°C)  = 0
                          Density (g/cm³)  =   0.99717
                               Volume (L)  =   1.00297
                        Activity of water  =   1.000
                 Ionic strength (mol/kgw)  =   1.006e-07
                       Mass of water (kg)  =   1.000e+00
                 Total alkalinity (eq/kg)  =   1.042e-09
                         Temperature (°C)  =  25.00
                  Electrical balance (eq)  =  -1.042e-09
 Percent error, 100*(Cat-|An|)/(Cat+|An|)  =  -0.52
                               Iterations  =   0
                                  Total H  = 1.110124e+02
                                  Total O  = 5.550622e+01

----------------------------Distribution of species----------------------------

                                               Log       Log       Log    mole V
   Species          Molality    Activity  Molality  Activity     Gamma   cm³/mol

   OH-             1.012e-07   1.011e-07    -6.995    -6.995    -0.000     -4.14
   H+              1.001e-07   1.001e-07    -6.999    -7.000    -0.000      0.00
   H2O             5.551e+01   1.000e+00     1.744    -0.000     0.000     18.07
H(0)          0.000e+00
   H2              0.000e+00   0.000e+00   -40.288   -40.288     0.000     28.61
O(0)          3.140e-12
   O2              1.570e-12   1.570e-12   -11.804   -11.804     0.000     30.40
Tce           9.999e-04
   Tce             9.999e-04   9.999e-04    -3.000    -3.000     0.000     (0)  

------------------------------Saturation indices-------------------------------

  Phase               SI** log IAP   log K(298 K,   1 atm)

  H2(g)           -37.19    -40.29   -3.10  H2
  H2O(g)           -1.50     -0.00    1.50  H2O
  O2(g)            -8.91    -11.80   -2.89  O2

**For a gas, SI = log10(fugacity). Fugacity = pressure * phi / 1 atm.
  For ideal gases, phi = 1.

------------------
End of simulation.
------------------

------------------------------------
Reading input data for simulation 2.
------------------------------------

-------------------------------
End of Run after 1.394 Seconds.
-------------------------------

