WARNING: Database file from DATABASE keyword is used; command line argument ignored.
   Input file: C:\Users\Eirik\Desktop\phreeqc-3.6.2-15100-x64\bin\3.pqi
  Output file: C:\Users\Eirik\Desktop\phreeqc-3.6.2-15100-x64\bin\3.pqi.out
Database file: C:\Users\Eirik\Desktop\phreeqc-3.6.2-15100-x64\database\phreeqc.dat

------------------
Reading data base.
------------------

	SOLUTION_MASTER_SPECIES
	SOLUTION_SPECIES
	PHASES
	EXCHANGE_MASTER_SPECIES
	EXCHANGE_SPECIES
	SURFACE_MASTER_SPECIES
	SURFACE_SPECIES
	RATES
	END
------------------------------------
Reading input data for simulation 1.
------------------------------------

	DATABASE C:\Users\Eirik\Desktop\phreeqc-3.6.2-15100-x64\database\phreeqc.dat
	SOLUTION_MASTER_SPECIES
	 Xylene Xylene 0 106 106         # C8H10
	SOLUTION_SPECIES
	 Xylene = Xylene
	 log_k 0
	RATES
	 S_degradation
	 start
	  1 mu_max = parm(1)
	 2 k_half = parm(2)
	 3 Y = parm(3)
	 4 R = 1 + parm(4)
	 10 S = tot("Xylene")
	 20 if S < 1e-9 then goto 60
	 30 B = kin("Biomass")                     # kin(".i.") gives moles of "Biomass"
	 40 rate = -mu_max * (B / (Y * 8)) * (S /(k_half + S)) / R
	 50 dS = rate * time
	 60 save dS                                # d mol(C8H10)
	 70 put(rate, 1)                           # Store dS/dt for use in Biomass rate
	 end
	 Biomass
	 start
	  1 Y = parm(1)
	 2 R = 1 + parm(2)
	 3 k_Bd = parm(3)
	 10 rate_S = get(1) * R               # Get degradation rate, multiply by Retardation
	 20 B = m
	 30 rate = -Y * 8 * rate_S - k_Bd * B
	 40 dB = rate * time
	 50 save -dB                          # dB is positive, counts negative to solution
	 end
	SOLUTION 1
	 units mg/L
	 Xylene 8.6
	KINETICS 1
	 S_degradation
	   formula Xylene 1
	 m0 0
	  parms 2.49e-5 7.45e-6 0.305 0.86                 # mu_max, k_half, Y, K_d
	 Biomass
	         formula C 0
	      m0 0.75e-7 # 1.33e-7 with Haldane inhibition
	  parms 0.305 0.86 0                               # Y, K_d, k_Bd
	  steps 0.6e6 in 50
	INCREMENTAL_REACTIONS
	USER_GRAPH
	 -headings time c_xylene Biomass
	 -axis_scale y_axis 0 10 2 1
	 -axis_scale x-axis 0 6 1 0.5
	 -axis_titles "Time / days" "mg / L"
	 -start
	 10 graph_x total_time / 86400
	 20 graph_y tot("Xylene") * 106e3, kin("Biomass") * 22.6e3
	 -end
	END
-------------------------------------------
Beginning of initial solution calculations.
-------------------------------------------

Initial solution 1.	

-----------------------------Solution composition------------------------------

	Elements           Molality       Moles

	Xylene            8.113e-05   8.113e-05

----------------------------Description of solution----------------------------

                                       pH  =   7.000    
                                       pe  =   4.000    
      Specific Conductance (µS/cm,  25°C)  = 0
                          Density (g/cm³)  =   0.99705
                               Volume (L)  =   1.00297
                        Activity of water  =   1.000
                 Ionic strength (mol/kgw)  =   1.006e-07
                       Mass of water (kg)  =   1.000e+00
                 Total alkalinity (eq/kg)  =   1.216e-09
                         Temperature (°C)  =  25.00
                  Electrical balance (eq)  =  -1.216e-09
 Percent error, 100*(Cat-|An|)/(Cat+|An|)  =  -0.60
                               Iterations  =   2
                                  Total H  = 1.110124e+02
                                  Total O  = 5.550622e+01

----------------------------Distribution of species----------------------------

                                               Log       Log       Log    mole V
   Species          Molality    Activity  Molality  Activity     Gamma   cm³/mol

   OH-             1.013e-07   1.012e-07    -6.995    -6.995    -0.000     -4.14
   H+              1.000e-07   1.000e-07    -7.000    -7.000    -0.000      0.00
   H2O             5.551e+01   1.000e+00     1.744    -0.000     0.000     18.07
H(0)          1.416e-25
   H2              7.079e-26   7.079e-26   -25.150   -25.150     0.000     28.61
O(0)          0.000e+00
   O2              0.000e+00   0.000e+00   -42.080   -42.080     0.000     30.40
Xylene        8.113e-05
   Xylene          8.113e-05   8.113e-05    -4.091    -4.091     0.000     (0)  

------------------------------Saturation indices-------------------------------

  Phase               SI** log IAP   log K(298 K,   1 atm)

  H2(g)           -22.05    -25.15   -3.10  H2
  H2O(g)           -1.50     -0.00    1.50  H2O
  O2(g)           -39.19    -42.08   -2.89  O2

**For a gas, SI = log10(fugacity). Fugacity = pressure * phi / 1 atm.
  For ideal gases, phi = 1.

-----------------------------------------
Beginning of batch-reaction calculations.
-----------------------------------------

Reaction step 1.

Using solution 1.	
Using kinetics 1.	

Kinetics 1.	

	Time step: 12000 seconds  (Incremented time: 12000 seconds)

	Rate name       Delta Moles Total Moles   Reactant        Coefficient

	S_degradation     4.924e-09   4.924e-09   Xylene                    1
	Biomass           2.235e-08   9.735e-08   C                         0

-----------------------------Solution composition------------------------------

	Elements           Molality       Moles

	Xylene            8.113e-05   8.113e-05

----------------------------Description of solution----------------------------

                                       pH  =   7.000      Charge balance
                                       pe  =  11.691      Adjusted to redox equilibrium
      Specific Conductance (µS/cm,  25°C)  = 0
                          Density (g/cm³)  =   0.99705
                               Volume (L)  =   1.00297
                        Activity of water  =   1.000
                 Ionic strength (mol/kgw)  =   1.006e-07
                       Mass of water (kg)  =   1.000e+00
                 Total alkalinity (eq/kg)  =   1.216e-09
                         Temperature (°C)  =  25.00
                  Electrical balance (eq)  =  -1.216e-09
 Percent error, 100*(Cat-|An|)/(Cat+|An|)  =  -0.60
                               Iterations  =  21
                                  Total H  = 1.110124e+02
                                  Total O  = 5.550622e+01

----------------------------Distribution of species----------------------------

                                               Log       Log       Log    mole V
   Species          Molality    Activity  Molality  Activity     Gamma   cm³/mol

   OH-             1.013e-07   1.012e-07    -6.995    -6.995    -0.000     -4.14
   H+              1.000e-07   1.000e-07    -7.000    -7.000    -0.000      0.00
   H2O             5.551e+01   1.000e+00     1.744    -0.000     0.000     18.07
H(0)          0.000e+00
   H2              0.000e+00   0.000e+00   -40.533   -40.533     0.000     28.61
O(0)          9.701e-12
   O2              4.851e-12   4.851e-12   -11.314   -11.314     0.000     30.40
Xylene        8.113e-05
   Xylene          8.113e-05   8.113e-05    -4.091    -4.091     0.000     (0)  

------------------------------Saturation indices-------------------------------

  Phase               SI** log IAP   log K(298 K,   1 atm)

  H2(g)           -37.43    -40.53   -3.10  H2
  H2O(g)           -1.50     -0.00    1.50  H2O
  O2(g)            -8.42    -11.31   -2.89  O2

**For a gas, SI = log10(fugacity). Fugacity = pressure * phi / 1 atm.
  For ideal gases, phi = 1.

Reaction step 2.

Using solution 1.	
Using kinetics 1.	

Kinetics 1.	

	Time step: 12000 seconds  (Incremented time: 24000 seconds)

	Rate name       Delta Moles Total Moles   Reactant        Coefficient

	S_degradation     5.870e-09   1.079e-08   Xylene                    1
	Biomass           2.664e-08   1.240e-07   C                         0

-----------------------------Solution composition------------------------------

	Elements           Molality       Moles

	Xylene            8.112e-05   8.112e-05

----------------------------Description of solution----------------------------

                                       pH  =   7.000      Charge balance
                                       pe  =  11.691      Adjusted to redox equilibrium
      Specific Conductance (µS/cm,  25°C)  = 0
                          Density (g/cm³)  =   0.99705
                               Volume (L)  =   1.00297
                        Activity of water  =   1.000
                 Ionic strength (mol/kgw)  =   1.006e-07
                       Mass of water (kg)  =   1.000e+00
                 Total alkalinity (eq/kg)  =   1.216e-09
                         Temperature (°C)  =  25.00
                  Electrical balance (eq)  =  -1.216e-09
 Percent error, 100*(Cat-|An|)/(Cat+|An|)  =  -0.60
                               Iterations  =   1
                                  Total H  = 1.110124e+02
                                  Total O  = 5.550622e+01

----------------------------Distribution of species----------------------------

                                               Log       Log       Log    mole V
   Species          Molality    Activity  Molality  Activity     Gamma   cm³/mol

   OH-             1.013e-07   1.012e-07    -6.995    -6.995    -0.000     -4.14
   H+              1.000e-07   1.000e-07    -7.000    -7.000    -0.000      0.00
   H2O             5.551e+01   1.000e+00     1.744    -0.000     0.000     18.07
H(0)          0.000e+00
   H2              0.000e+00   0.000e+00   -40.533   -40.533     0.000     28.61
O(0)          9.704e-12
   O2              4.852e-12   4.852e-12   -11.314   -11.314     0.000     30.40
Xylene        8.112e-05
   Xylene          8.112e-05   8.112e-05    -4.091    -4.091     0.000     (0)  

------------------------------Saturation indices-------------------------------

  Phase               SI** log IAP   log K(298 K,   1 atm)

  H2(g)           -37.43    -40.53   -3.10  H2
  H2O(g)           -1.50     -0.00    1.50  H2O
  O2(g)            -8.42    -11.31   -2.89  O2

**For a gas, SI = log10(fugacity). Fugacity = pressure * phi / 1 atm.
  For ideal gases, phi = 1.

Reaction step 3.

Using solution 1.	
Using kinetics 1.	

Kinetics 1.	

	Time step: 12000 seconds  (Incremented time: 36000 seconds)

	Rate name       Delta Moles Total Moles   Reactant        Coefficient

	S_degradation     7.477e-09   1.827e-08   Xylene                    1
	Biomass           3.393e-08   1.579e-07   C                         0

-----------------------------Solution composition------------------------------

	Elements           Molality       Moles

	Xylene            8.111e-05   8.111e-05

----------------------------Description of solution----------------------------

                                       pH  =   7.000      Charge balance
                                       pe  =  11.692      Adjusted to redox equilibrium
      Specific Conductance (µS/cm,  25°C)  = 0
                          Density (g/cm³)  =   0.99705
                               Volume (L)  =   1.00297
                        Activity of water  =   1.000
                 Ionic strength (mol/kgw)  =   1.006e-07
                       Mass of water (kg)  =   1.000e+00
                 Total alkalinity (eq/kg)  =   1.216e-09
                         Temperature (°C)  =  25.00
                  Electrical balance (eq)  =  -1.216e-09
 Percent error, 100*(Cat-|An|)/(Cat+|An|)  =  -0.60
                               Iterations  =   1
                                  Total H  = 1.110124e+02
                                  Total O  = 5.550622e+01

----------------------------Distribution of species----------------------------

                                               Log       Log       Log    mole V
   Species          Molality    Activity  Molality  Activity     Gamma   cm³/mol

   OH-             1.013e-07   1.012e-07    -6.995    -6.995    -0.000     -4.14
   H+              1.000e-07   1.000e-07    -7.000    -7.000    -0.000      0.00
   H2O             5.551e+01   1.000e+00     1.744    -0.000     0.000     18.07
H(0)          0.000e+00
   H2              0.000e+00   0.000e+00   -40.533   -40.533     0.000     28.61
O(0)          9.711e-12
   O2              4.856e-12   4.856e-12   -11.314   -11.314     0.000     30.40
Xylene        8.111e-05
   Xylene          8.111e-05   8.111e-05    -4.091    -4.091     0.000     (0)  

------------------------------Saturation indices-------------------------------

  Phase               SI** log IAP   log K(298 K,   1 atm)

  H2(g)           -37.43    -40.53   -3.10  H2
  H2O(g)           -1.50     -0.00    1.50  H2O
  O2(g)            -8.42    -11.31   -2.89  O2

**For a gas, SI = log10(fugacity). Fugacity = pressure * phi / 1 atm.
  For ideal gases, phi = 1.

Reaction step 4.

Using solution 1.	
Using kinetics 1.	

Kinetics 1.	

	Time step: 12000 seconds  (Incremented time: 48000 seconds)

	Rate name       Delta Moles Total Moles   Reactant        Coefficient

	S_degradation     1.095e-08   2.922e-08   Xylene                    1
	Biomass           4.971e-08   2.076e-07   C                         0

-----------------------------Solution composition------------------------------

	Elements           Molality       Moles

	Xylene            8.110e-05   8.110e-05

----------------------------Description of solution----------------------------

                                       pH  =   7.000      Charge balance
                                       pe  =  11.692      Adjusted to redox equilibrium
      Specific Conductance (µS/cm,  25°C)  = 0
                          Density (g/cm³)  =   0.99705
                               Volume (L)  =   1.00297
                        Activity of water  =   1.000
                 Ionic strength (mol/kgw)  =   1.006e-07
                       Mass of water (kg)  =   1.000e+00
                 Total alkalinity (eq/kg)  =   1.216e-09
                         Temperature (°C)  =  25.00
                  Electrical balance (eq)  =  -1.216e-09
 Percent error, 100*(Cat-|An|)/(Cat+|An|)  =  -0.60
                               Iterations  =   7
                                  Total H  = 1.110124e+02
                                  Total O  = 5.550622e+01

----------------------------Distribution of species----------------------------

                                               Log       Log       Log    mole V
   Species          Molality    Activity  Molality  Activity     Gamma   cm³/mol

   OH-             1.013e-07   1.012e-07    -6.995    -6.995    -0.000     -4.14
   H+              1.000e-07   1.000e-07    -7.000    -7.000    -0.000      0.00
   H2O             5.551e+01   1.000e+00     1.744    -0.000     0.000     18.07
H(0)          0.000e+00
   H2              0.000e+00   0.000e+00   -40.533   -40.533     0.000     28.61
O(0)          9.719e-12
   O2              4.859e-12   4.859e-12   -11.313   -11.313     0.000     30.40
Xylene        8.110e-05
   Xylene          8.110e-05   8.110e-05    -4.091    -4.091     0.000     (0)  

------------------------------Saturation indices-------------------------------

  Phase               SI** log IAP   log K(298 K,   1 atm)

  H2(g)           -37.43    -40.53   -3.10  H2
  H2O(g)           -1.50     -0.00    1.50  H2O
  O2(g)            -8.42    -11.31   -2.89  O2

**For a gas, SI = log10(fugacity). Fugacity = pressure * phi / 1 atm.
  For ideal gases, phi = 1.

Reaction step 5.

Using solution 1.	
Using kinetics 1.	

Kinetics 1.	

	Time step: 12000 seconds  (Incremented time: 60000 seconds)

	Rate name       Delta Moles Total Moles   Reactant        Coefficient

	S_degradation     1.363e-08   4.286e-08   Xylene                    1
	Biomass           6.187e-08   2.695e-07   C                         0

-----------------------------Solution composition------------------------------

	Elements           Molality       Moles

	Xylene            8.109e-05   8.109e-05

----------------------------Description of solution----------------------------

                                       pH  =   7.000      Charge balance
                                       pe  =  11.692      Adjusted to redox equilibrium
      Specific Conductance (µS/cm,  25°C)  = 0
                          Density (g/cm³)  =   0.99705
                               Volume (L)  =   1.00297
                        Activity of water  =   1.000
                 Ionic strength (mol/kgw)  =   1.006e-07
                       Mass of water (kg)  =   1.000e+00
                 Total alkalinity (eq/kg)  =   1.216e-09
                         Temperature (°C)  =  25.00
                  Electrical balance (eq)  =  -1.216e-09
 Percent error, 100*(Cat-|An|)/(Cat+|An|)  =  -0.60
                               Iterations  =   4
                                  Total H  = 1.110124e+02
                                  Total O  = 5.550622e+01

----------------------------Distribution of species----------------------------

                                               Log       Log       Log    mole V
   Species          Molality    Activity  Molality  Activity     Gamma   cm³/mol

   OH-             1.013e-07   1.012e-07    -6.995    -6.995    -0.000     -4.14
   H+              1.000e-07   1.000e-07    -7.000    -7.000    -0.000      0.00
   H2O             5.551e+01   1.000e+00     1.744    -0.000     0.000     18.07
H(0)          0.000e+00
   H2              0.000e+00   0.000e+00   -40.533   -40.533     0.000     28.61
O(0)          9.726e-12
   O2              4.863e-12   4.863e-12   -11.313   -11.313     0.000     30.40
Xylene        8.109e-05
   Xylene          8.109e-05   8.109e-05    -4.091    -4.091     0.000     (0)  

------------------------------Saturation indices-------------------------------

  Phase               SI** log IAP   log K(298 K,   1 atm)

  H2(g)           -37.43    -40.53   -3.10  H2
  H2O(g)           -1.50     -0.00    1.50  H2O
  O2(g)            -8.42    -11.31   -2.89  O2

**For a gas, SI = log10(fugacity). Fugacity = pressure * phi / 1 atm.
  For ideal gases, phi = 1.

Reaction step 6.

Using solution 1.	
Using kinetics 1.	

Kinetics 1.	

	Time step: 12000 seconds  (Incremented time: 72000 seconds)

	Rate name       Delta Moles Total Moles   Reactant        Coefficient

	S_degradation     1.769e-08   6.055e-08   Xylene                    1
	Biomass           8.030e-08   3.498e-07   C                         0

-----------------------------Solution composition------------------------------

	Elements           Molality       Moles

	Xylene            8.107e-05   8.107e-05

----------------------------Description of solution----------------------------

                                       pH  =   7.000      Charge balance
                                       pe  =  11.692      Adjusted to redox equilibrium
      Specific Conductance (µS/cm,  25°C)  = 0
                          Density (g/cm³)  =   0.99705
                               Volume (L)  =   1.00297
                        Activity of water  =   1.000
                 Ionic strength (mol/kgw)  =   1.006e-07
                       Mass of water (kg)  =   1.000e+00
                 Total alkalinity (eq/kg)  =   1.216e-09
                         Temperature (°C)  =  25.00
                  Electrical balance (eq)  =  -1.216e-09
 Percent error, 100*(Cat-|An|)/(Cat+|An|)  =  -0.60
                               Iterations  =   4
                                  Total H  = 1.110124e+02
                                  Total O  = 5.550622e+01

----------------------------Distribution of species----------------------------

                                               Log       Log       Log    mole V
   Species          Molality    Activity  Molality  Activity     Gamma   cm³/mol

   OH-             1.013e-07   1.012e-07    -6.995    -6.995    -0.000     -4.14
   H+              1.000e-07   1.000e-07    -7.000    -7.000    -0.000      0.00
   H2O             5.551e+01   1.000e+00     1.744    -0.000     0.000     18.07
H(0)          0.000e+00
   H2              0.000e+00   0.000e+00   -40.534   -40.534     0.000     28.61
O(0)          9.733e-12
   O2              4.866e-12   4.866e-12   -11.313   -11.313     0.000     30.40
Xylene        8.107e-05
   Xylene          8.107e-05   8.107e-05    -4.091    -4.091     0.000     (0)  

------------------------------Saturation indices-------------------------------

  Phase               SI** log IAP   log K(298 K,   1 atm)

  H2(g)           -37.43    -40.53   -3.10  H2
  H2O(g)           -1.50     -0.00    1.50  H2O
  O2(g)            -8.42    -11.31   -2.89  O2

**For a gas, SI = log10(fugacity). Fugacity = pressure * phi / 1 atm.
  For ideal gases, phi = 1.

Reaction step 7.

Using solution 1.	
Using kinetics 1.	

Kinetics 1.	

	Time step: 12000 seconds  (Incremented time: 84000 seconds)

	Rate name       Delta Moles Total Moles   Reactant        Coefficient

	S_degradation     2.297e-08   8.352e-08   Xylene                    1
	Biomass           1.042e-07   4.540e-07   C                         0

-----------------------------Solution composition------------------------------

	Elements           Molality       Moles

	Xylene            8.105e-05   8.105e-05

----------------------------Description of solution----------------------------

                                       pH  =   7.000      Charge balance
                                       pe  =  11.692      Adjusted to redox equilibrium
      Specific Conductance (µS/cm,  25°C)  = 0
                          Density (g/cm³)  =   0.99705
                               Volume (L)  =   1.00297
                        Activity of water  =   1.000
                 Ionic strength (mol/kgw)  =   1.006e-07
                       Mass of water (kg)  =   1.000e+00
                 Total alkalinity (eq/kg)  =   1.216e-09
                         Temperature (°C)  =  25.00
                  Electrical balance (eq)  =  -1.216e-09
 Percent error, 100*(Cat-|An|)/(Cat+|An|)  =  -0.60
                               Iterations  =   4
                                  Total H  = 1.110124e+02
                                  Total O  = 5.550622e+01

----------------------------Distribution of species----------------------------

                                               Log       Log       Log    mole V
   Species          Molality    Activity  Molality  Activity     Gamma   cm³/mol

   OH-             1.013e-07   1.012e-07    -6.995    -6.995    -0.000     -4.14
   H+              1.000e-07   1.000e-07    -7.000    -7.000    -0.000      0.00
   H2O             5.551e+01   1.000e+00     1.744    -0.000     0.000     18.07
H(0)          0.000e+00
   H2              0.000e+00   0.000e+00   -40.534   -40.534     0.000     28.61
O(0)          9.740e-12
   O2              4.870e-12   4.870e-12   -11.312   -11.312     0.000     30.40
Xylene        8.105e-05
   Xylene          8.105e-05   8.105e-05    -4.091    -4.091     0.000     (0)  

------------------------------Saturation indices-------------------------------

  Phase               SI** log IAP   log K(298 K,   1 atm)

  H2(g)           -37.43    -40.53   -3.10  H2
  H2O(g)           -1.50     -0.00    1.50  H2O
  O2(g)            -8.42    -11.31   -2.89  O2

**For a gas, SI = log10(fugacity). Fugacity = pressure * phi / 1 atm.
  For ideal gases, phi = 1.

Reaction step 8.

Using solution 1.	
Using kinetics 1.	

Kinetics 1.	

	Time step: 12000 seconds  (Incremented time: 96000 seconds)

	Rate name       Delta Moles Total Moles   Reactant        Coefficient

	S_degradation     3.149e-08   1.150e-07   Xylene                    1
	Biomass           1.429e-07   5.969e-07   C                         0

-----------------------------Solution composition------------------------------

	Elements           Molality       Moles

	Xylene            8.102e-05   8.102e-05

----------------------------Description of solution----------------------------

                                       pH  =   7.000      Charge balance
                                       pe  =  11.692      Adjusted to redox equilibrium
      Specific Conductance (µS/cm,  25°C)  = 0
                          Density (g/cm³)  =   0.99705
                               Volume (L)  =   1.00297
                        Activity of water  =   1.000
                 Ionic strength (mol/kgw)  =   1.006e-07
                       Mass of water (kg)  =   1.000e+00
                 Total alkalinity (eq/kg)  =   1.216e-09
                         Temperature (°C)  =  25.00
                  Electrical balance (eq)  =  -1.216e-09
 Percent error, 100*(Cat-|An|)/(Cat+|An|)  =  -0.60
                               Iterations  =  10
                                  Total H  = 1.110124e+02
                                  Total O  = 5.550622e+01

----------------------------Distribution of species----------------------------

                                               Log       Log       Log    mole V
   Species          Molality    Activity  Molality  Activity     Gamma   cm³/mol

   OH-             1.013e-07   1.012e-07    -6.995    -6.995    -0.000     -4.14
   H+              1.000e-07   1.000e-07    -7.000    -7.000    -0.000      0.00
   H2O             5.551e+01   1.000e+00     1.744    -0.000     0.000     18.07
H(0)          0.000e+00
   H2              0.000e+00   0.000e+00   -40.534   -40.534     0.000     28.61
O(0)          9.747e-12
   O2              4.874e-12   4.874e-12   -11.312   -11.312     0.000     30.40
Xylene        8.102e-05
   Xylene          8.102e-05   8.102e-05    -4.091    -4.091     0.000     (0)  

------------------------------Saturation indices-------------------------------

  Phase               SI** log IAP   log K(298 K,   1 atm)

  H2(g)           -37.43    -40.53   -3.10  H2
  H2O(g)           -1.50     -0.00    1.50  H2O
  O2(g)            -8.42    -11.31   -2.89  O2

**For a gas, SI = log10(fugacity). Fugacity = pressure * phi / 1 atm.
  For ideal gases, phi = 1.

Reaction step 9.

Using solution 1.	
Using kinetics 1.	

Kinetics 1.	

	Time step: 12000 seconds  (Incremented time: 108000 seconds)

	Rate name       Delta Moles Total Moles   Reactant        Coefficient

	S_degradation     4.140e-08   1.564e-07   Xylene                    1
	Biomass           1.879e-07   7.848e-07   C                         0

-----------------------------Solution composition------------------------------

	Elements           Molality       Moles

	Xylene            8.098e-05   8.098e-05

----------------------------Description of solution----------------------------

                                       pH  =   7.000      Charge balance
                                       pe  =  11.692      Adjusted to redox equilibrium
      Specific Conductance (µS/cm,  25°C)  = 0
                          Density (g/cm³)  =   0.99705
                               Volume (L)  =   1.00297
                        Activity of water  =   1.000
                 Ionic strength (mol/kgw)  =   1.006e-07
                       Mass of water (kg)  =   1.000e+00
                 Total alkalinity (eq/kg)  =   1.216e-09
                         Temperature (°C)  =  25.00
                  Electrical balance (eq)  =  -1.216e-09
 Percent error, 100*(Cat-|An|)/(Cat+|An|)  =  -0.60
                               Iterations  =  10
                                  Total H  = 1.110124e+02
                                  Total O  = 5.550622e+01

----------------------------Distribution of species----------------------------

                                               Log       Log       Log    mole V
   Species          Molality    Activity  Molality  Activity     Gamma   cm³/mol

   OH-             1.013e-07   1.012e-07    -6.995    -6.995    -0.000     -4.14
   H+              1.000e-07   1.000e-07    -7.000    -7.000    -0.000      0.00
   H2O             5.551e+01   1.000e+00     1.744    -0.000     0.000     18.07
H(0)          0.000e+00
   H2              0.000e+00   0.000e+00   -40.534   -40.534     0.000     28.61
O(0)          9.754e-12
   O2              4.877e-12   4.877e-12   -11.312   -11.312     0.000     30.40
Xylene        8.098e-05
   Xylene          8.098e-05   8.098e-05    -4.092    -4.092     0.000     (0)  

------------------------------Saturation indices-------------------------------

  Phase               SI** log IAP   log K(298 K,   1 atm)

  H2(g)           -37.43    -40.53   -3.10  H2
  H2O(g)           -1.50     -0.00    1.50  H2O
  O2(g)            -8.42    -11.31   -2.89  O2

**For a gas, SI = log10(fugacity). Fugacity = pressure * phi / 1 atm.
  For ideal gases, phi = 1.

Reaction step 10.

Using solution 1.	
Using kinetics 1.	

Kinetics 1.	

	Time step: 12000 seconds  (Incremented time: 120000 seconds)

	Rate name       Delta Moles Total Moles   Reactant        Coefficient

	S_degradation     5.442e-08   2.108e-07   Xylene                    1
	Biomass           2.470e-07   1.032e-06   C                         0

-----------------------------Solution composition------------------------------

	Elements           Molality       Moles

	Xylene            8.092e-05   8.092e-05

----------------------------Description of solution----------------------------

                                       pH  =   7.000      Charge balance
                                       pe  =  11.692      Adjusted to redox equilibrium
      Specific Conductance (µS/cm,  25°C)  = 0
                          Density (g/cm³)  =   0.99705
                               Volume (L)  =   1.00297
                        Activity of water  =   1.000
                 Ionic strength (mol/kgw)  =   1.006e-07
                       Mass of water (kg)  =   1.000e+00
                 Total alkalinity (eq/kg)  =   1.216e-09
                         Temperature (°C)  =  25.00
                  Electrical balance (eq)  =  -1.216e-09
 Percent error, 100*(Cat-|An|)/(Cat+|An|)  =  -0.60
                               Iterations  =  11
                                  Total H  = 1.110124e+02
                                  Total O  = 5.550622e+01

----------------------------Distribution of species----------------------------

                                               Log       Log       Log    mole V
   Species          Molality    Activity  Molality  Activity     Gamma   cm³/mol

   OH-             1.013e-07   1.012e-07    -6.995    -6.995    -0.000     -4.14
   H+              1.000e-07   1.000e-07    -7.000    -7.000    -0.000      0.00
   H2O             5.551e+01   1.000e+00     1.744    -0.000     0.000     18.07
H(0)          0.000e+00
   H2              0.000e+00   0.000e+00   -40.534   -40.534     0.000     28.61
O(0)          9.761e-12
   O2              4.881e-12   4.881e-12   -11.312   -11.312     0.000     30.40
Xylene        8.092e-05
   Xylene          8.092e-05   8.092e-05    -4.092    -4.092     0.000     (0)  

------------------------------Saturation indices-------------------------------

  Phase               SI** log IAP   log K(298 K,   1 atm)

  H2(g)           -37.43    -40.53   -3.10  H2
  H2O(g)           -1.50     -0.00    1.50  H2O
  O2(g)            -8.42    -11.31   -2.89  O2

**For a gas, SI = log10(fugacity). Fugacity = pressure * phi / 1 atm.
  For ideal gases, phi = 1.

Reaction step 11.

Using solution 1.	
Using kinetics 1.	

Kinetics 1.	

	Time step: 12000 seconds  (Incremented time: 132000 seconds)

	Rate name       Delta Moles Total Moles   Reactant        Coefficient

	S_degradation     7.154e-08   2.824e-07   Xylene                    1
	Biomass           3.247e-07   1.356e-06   C                         0

-----------------------------Solution composition------------------------------

	Elements           Molality       Moles

	Xylene            8.085e-05   8.085e-05

----------------------------Description of solution----------------------------

                                       pH  =   7.000      Charge balance
                                       pe  =  11.692      Adjusted to redox equilibrium
      Specific Conductance (µS/cm,  25°C)  = 0
                          Density (g/cm³)  =   0.99705
                               Volume (L)  =   1.00297
                        Activity of water  =   1.000
                 Ionic strength (mol/kgw)  =   1.006e-07
                       Mass of water (kg)  =   1.000e+00
                 Total alkalinity (eq/kg)  =   1.216e-09
                         Temperature (°C)  =  25.00
                  Electrical balance (eq)  =  -1.216e-09
 Percent error, 100*(Cat-|An|)/(Cat+|An|)  =  -0.60
                               Iterations  =  12
                                  Total H  = 1.110124e+02
                                  Total O  = 5.550622e+01

----------------------------Distribution of species----------------------------

                                               Log       Log       Log    mole V
   Species          Molality    Activity  Molality  Activity     Gamma   cm³/mol

   OH-             1.013e-07   1.012e-07    -6.995    -6.995    -0.000     -4.14
   H+              1.000e-07   1.000e-07    -7.000    -7.000    -0.000      0.00
   H2O             5.551e+01   1.000e+00     1.744    -0.000     0.000     18.07
H(0)          0.000e+00
   H2              0.000e+00   0.000e+00   -40.534   -40.534     0.000     28.61
O(0)          9.768e-12
   O2              4.884e-12   4.884e-12   -11.311   -11.311     0.000     30.40
Xylene        8.085e-05
   Xylene          8.085e-05   8.085e-05    -4.092    -4.092     0.000     (0)  

------------------------------Saturation indices-------------------------------

  Phase               SI** log IAP   log K(298 K,   1 atm)

  H2(g)           -37.43    -40.53   -3.10  H2
  H2O(g)           -1.50     -0.00    1.50  H2O
  O2(g)            -8.42    -11.31   -2.89  O2

**For a gas, SI = log10(fugacity). Fugacity = pressure * phi / 1 atm.
  For ideal gases, phi = 1.

Reaction step 12.

Using solution 1.	
Using kinetics 1.	

Kinetics 1.	

	Time step: 12000 seconds  (Incremented time: 144000 seconds)

	Rate name       Delta Moles Total Moles   Reactant        Coefficient

	S_degradation     9.405e-08   3.764e-07   Xylene                    1
	Biomass           4.268e-07   1.783e-06   C                         0

-----------------------------Solution composition------------------------------

	Elements           Molality       Moles

	Xylene            8.076e-05   8.076e-05

----------------------------Description of solution----------------------------

                                       pH  =   7.000      Charge balance
                                       pe  =  11.692      Adjusted to redox equilibrium
      Specific Conductance (µS/cm,  25°C)  = 0
                          Density (g/cm³)  =   0.99705
                               Volume (L)  =   1.00297
                        Activity of water  =   1.000
                 Ionic strength (mol/kgw)  =   1.006e-07
                       Mass of water (kg)  =   1.000e+00
                 Total alkalinity (eq/kg)  =   1.216e-09
                         Temperature (°C)  =  25.00
                  Electrical balance (eq)  =  -1.216e-09
 Percent error, 100*(Cat-|An|)/(Cat+|An|)  =  -0.60
                               Iterations  =  12
                                  Total H  = 1.110124e+02
                                  Total O  = 5.550622e+01

----------------------------Distribution of species----------------------------

                                               Log       Log       Log    mole V
   Species          Molality    Activity  Molality  Activity     Gamma   cm³/mol

   OH-             1.013e-07   1.012e-07    -6.995    -6.995    -0.000     -4.14
   H+              1.000e-07   1.000e-07    -7.000    -7.000    -0.000      0.00
   H2O             5.551e+01   1.000e+00     1.744    -0.000     0.000     18.07
H(0)          0.000e+00
   H2              0.000e+00   0.000e+00   -40.535   -40.535     0.000     28.61
O(0)          9.775e-12
   O2              4.888e-12   4.888e-12   -11.311   -11.311     0.000     30.40
Xylene        8.076e-05
   Xylene          8.076e-05   8.076e-05    -4.093    -4.093     0.000     (0)  

------------------------------Saturation indices-------------------------------

  Phase               SI** log IAP   log K(298 K,   1 atm)

  H2(g)           -37.43    -40.53   -3.10  H2
  H2O(g)           -1.50     -0.00    1.50  H2O
  O2(g)            -8.42    -11.31   -2.89  O2

**For a gas, SI = log10(fugacity). Fugacity = pressure * phi / 1 atm.
  For ideal gases, phi = 1.

Reaction step 13.

Using solution 1.	
Using kinetics 1.	

Kinetics 1.	

	Time step: 12000 seconds  (Incremented time: 156000 seconds)

	Rate name       Delta Moles Total Moles   Reactant        Coefficient

	S_degradation     1.236e-07   5.000e-07   Xylene                    1
	Biomass           5.611e-07   2.344e-06   C                         0

-----------------------------Solution composition------------------------------

	Elements           Molality       Moles

	Xylene            8.063e-05   8.063e-05

----------------------------Description of solution----------------------------

                                       pH  =   7.000      Charge balance
                                       pe  =  11.692      Adjusted to redox equilibrium
      Specific Conductance (µS/cm,  25°C)  = 0
                          Density (g/cm³)  =   0.99705
                               Volume (L)  =   1.00297
                        Activity of water  =   1.000
                 Ionic strength (mol/kgw)  =   1.006e-07
                       Mass of water (kg)  =   1.000e+00
                 Total alkalinity (eq/kg)  =   1.216e-09
                         Temperature (°C)  =  25.00
                  Electrical balance (eq)  =  -1.216e-09
 Percent error, 100*(Cat-|An|)/(Cat+|An|)  =  -0.60
                               Iterations  =  12
                                  Total H  = 1.110124e+02
                                  Total O  = 5.550622e+01

----------------------------Distribution of species----------------------------

                                               Log       Log       Log    mole V
   Species          Molality    Activity  Molality  Activity     Gamma   cm³/mol

   OH-             1.013e-07   1.012e-07    -6.995    -6.995    -0.000     -4.14
   H+              1.000e-07   1.000e-07    -7.000    -7.000    -0.000      0.00
   H2O             5.551e+01   1.000e+00     1.744    -0.000     0.000     18.07
H(0)          0.000e+00
   H2              0.000e+00   0.000e+00   -40.535   -40.535     0.000     28.61
O(0)          9.783e-12
   O2              4.891e-12   4.891e-12   -11.311   -11.311     0.000     30.40
Xylene        8.063e-05
   Xylene          8.063e-05   8.063e-05    -4.093    -4.093     0.000     (0)  

------------------------------Saturation indices-------------------------------

  Phase               SI** log IAP   log K(298 K,   1 atm)

  H2(g)           -37.43    -40.53   -3.10  H2
  H2O(g)           -1.50     -0.00    1.50  H2O
  O2(g)            -8.42    -11.31   -2.89  O2

**For a gas, SI = log10(fugacity). Fugacity = pressure * phi / 1 atm.
  For ideal gases, phi = 1.

Reaction step 14.

Using solution 1.	
Using kinetics 1.	

Kinetics 1.	

	Time step: 12000 seconds  (Incremented time: 168000 seconds)

	Rate name       Delta Moles Total Moles   Reactant        Coefficient

	S_degradation     1.625e-07   6.625e-07   Xylene                    1
	Biomass           7.375e-07   3.082e-06   C                         0

-----------------------------Solution composition------------------------------

	Elements           Molality       Moles

	Xylene            8.047e-05   8.047e-05

----------------------------Description of solution----------------------------

                                       pH  =   7.000      Charge balance
                                       pe  =  11.692      Adjusted to redox equilibrium
      Specific Conductance (µS/cm,  25°C)  = 0
                          Density (g/cm³)  =   0.99705
                               Volume (L)  =   1.00297
                        Activity of water  =   1.000
                 Ionic strength (mol/kgw)  =   1.006e-07
                       Mass of water (kg)  =   1.000e+00
                 Total alkalinity (eq/kg)  =   1.216e-09
                         Temperature (°C)  =  25.00
                  Electrical balance (eq)  =  -1.216e-09
 Percent error, 100*(Cat-|An|)/(Cat+|An|)  =  -0.60
                               Iterations  =  12
                                  Total H  = 1.110124e+02
                                  Total O  = 5.550622e+01

----------------------------Distribution of species----------------------------

                                               Log       Log       Log    mole V
   Species          Molality    Activity  Molality  Activity     Gamma   cm³/mol

   OH-             1.013e-07   1.012e-07    -6.995    -6.995    -0.000     -4.14
   H+              1.000e-07   1.000e-07    -7.000    -7.000    -0.000      0.00
   H2O             5.551e+01   1.000e+00     1.744    -0.000     0.000     18.07
H(0)          0.000e+00
   H2              0.000e+00   0.000e+00   -40.535   -40.535     0.000     28.61
O(0)          9.790e-12
   O2              4.895e-12   4.895e-12   -11.310   -11.310     0.000     30.40
Xylene        8.047e-05
   Xylene          8.047e-05   8.047e-05    -4.094    -4.094     0.000     (0)  

------------------------------Saturation indices-------------------------------

  Phase               SI** log IAP   log K(298 K,   1 atm)

  H2(g)           -37.43    -40.53   -3.10  H2
  H2O(g)           -1.50     -0.00    1.50  H2O
  O2(g)            -8.42    -11.31   -2.89  O2

**For a gas, SI = log10(fugacity). Fugacity = pressure * phi / 1 atm.
  For ideal gases, phi = 1.

Reaction step 15.

Using solution 1.	
Using kinetics 1.	

Kinetics 1.	

	Time step: 12000 seconds  (Incremented time: 180000 seconds)

	Rate name       Delta Moles Total Moles   Reactant        Coefficient

	S_degradation     2.136e-07   8.761e-07   Xylene                    1
	Biomass           9.692e-07   4.051e-06   C                         0

-----------------------------Solution composition------------------------------

	Elements           Molality       Moles

	Xylene            8.026e-05   8.026e-05

----------------------------Description of solution----------------------------

                                       pH  =   7.000      Charge balance
                                       pe  =  11.693      Adjusted to redox equilibrium
      Specific Conductance (µS/cm,  25°C)  = 0
                          Density (g/cm³)  =   0.99705
                               Volume (L)  =   1.00297
                        Activity of water  =   1.000
                 Ionic strength (mol/kgw)  =   1.006e-07
                       Mass of water (kg)  =   1.000e+00
                 Total alkalinity (eq/kg)  =   1.216e-09
                         Temperature (°C)  =  25.00
                  Electrical balance (eq)  =  -1.216e-09
 Percent error, 100*(Cat-|An|)/(Cat+|An|)  =  -0.60
                               Iterations  =  12
                                  Total H  = 1.110124e+02
                                  Total O  = 5.550622e+01

----------------------------Distribution of species----------------------------

                                               Log       Log       Log    mole V
   Species          Molality    Activity  Molality  Activity     Gamma   cm³/mol

   OH-             1.013e-07   1.012e-07    -6.995    -6.995    -0.000     -4.14
   H+              1.000e-07   1.000e-07    -7.000    -7.000    -0.000      0.00
   H2O             5.551e+01   1.000e+00     1.744    -0.000     0.000     18.07
H(0)          0.000e+00
   H2              0.000e+00   0.000e+00   -40.535   -40.535     0.000     28.61
O(0)          9.797e-12
   O2              4.898e-12   4.898e-12   -11.310   -11.310     0.000     30.40
Xylene        8.026e-05
   Xylene          8.026e-05   8.026e-05    -4.096    -4.096     0.000     (0)  

------------------------------Saturation indices-------------------------------

  Phase               SI** log IAP   log K(298 K,   1 atm)

  H2(g)           -37.43    -40.54   -3.10  H2
  H2O(g)           -1.50     -0.00    1.50  H2O
  O2(g)            -8.42    -11.31   -2.89  O2

**For a gas, SI = log10(fugacity). Fugacity = pressure * phi / 1 atm.
  For ideal gases, phi = 1.

Reaction step 16.

Using solution 1.	
Using kinetics 1.	

Kinetics 1.	

	Time step: 12000 seconds  (Incremented time: 192000 seconds)

	Rate name       Delta Moles Total Moles   Reactant        Coefficient

	S_degradation     2.806e-07   1.157e-06   Xylene                    1
	Biomass           1.274e-06   5.325e-06   C                         0

-----------------------------Solution composition------------------------------

	Elements           Molality       Moles

	Xylene            7.998e-05   7.998e-05

----------------------------Description of solution----------------------------

                                       pH  =   7.000      Charge balance
                                       pe  =  11.693      Adjusted to redox equilibrium
      Specific Conductance (µS/cm,  25°C)  = 0
                          Density (g/cm³)  =   0.99705
                               Volume (L)  =   1.00297
                        Activity of water  =   1.000
                 Ionic strength (mol/kgw)  =   1.006e-07
                       Mass of water (kg)  =   1.000e+00
                 Total alkalinity (eq/kg)  =   1.216e-09
                         Temperature (°C)  =  25.00
                  Electrical balance (eq)  =  -1.216e-09
 Percent error, 100*(Cat-|An|)/(Cat+|An|)  =  -0.60
                               Iterations  =  12
                                  Total H  = 1.110124e+02
                                  Total O  = 5.550622e+01

----------------------------Distribution of species----------------------------

                                               Log       Log       Log    mole V
   Species          Molality    Activity  Molality  Activity     Gamma   cm³/mol

   OH-             1.013e-07   1.012e-07    -6.995    -6.995    -0.000     -4.14
   H+              1.000e-07   1.000e-07    -7.000    -7.000    -0.000      0.00
   H2O             5.551e+01   1.000e+00     1.744    -0.000     0.000     18.07
H(0)          0.000e+00
   H2              0.000e+00   0.000e+00   -40.535   -40.535     0.000     28.61
O(0)          9.804e-12
   O2              4.902e-12   4.902e-12   -11.310   -11.310     0.000     30.40
Xylene        7.998e-05
   Xylene          7.998e-05   7.998e-05    -4.097    -4.097     0.000     (0)  

------------------------------Saturation indices-------------------------------

  Phase               SI** log IAP   log K(298 K,   1 atm)

  H2(g)           -37.43    -40.54   -3.10  H2
  H2O(g)           -1.50     -0.00    1.50  H2O
  O2(g)            -8.42    -11.31   -2.89  O2

**For a gas, SI = log10(fugacity). Fugacity = pressure * phi / 1 atm.
  For ideal gases, phi = 1.

Reaction step 17.

Using solution 1.	
Using kinetics 1.	

Kinetics 1.	

	Time step: 12000 seconds  (Incremented time: 204000 seconds)

	Rate name       Delta Moles Total Moles   Reactant        Coefficient

	S_degradation     3.687e-07   1.525e-06   Xylene                    1
	Biomass           1.673e-06   6.998e-06   C                         0

-----------------------------Solution composition------------------------------

	Elements           Molality       Moles

	Xylene            7.961e-05   7.961e-05

----------------------------Description of solution----------------------------

                                       pH  =   7.000      Charge balance
                                       pe  =  11.693      Adjusted to redox equilibrium
      Specific Conductance (µS/cm,  25°C)  = 0
                          Density (g/cm³)  =   0.99705
                               Volume (L)  =   1.00297
                        Activity of water  =   1.000
                 Ionic strength (mol/kgw)  =   1.006e-07
                       Mass of water (kg)  =   1.000e+00
                 Total alkalinity (eq/kg)  =   1.216e-09
                         Temperature (°C)  =  25.00
                  Electrical balance (eq)  =  -1.216e-09
 Percent error, 100*(Cat-|An|)/(Cat+|An|)  =  -0.60
                               Iterations  =  12
                                  Total H  = 1.110124e+02
                                  Total O  = 5.550622e+01

----------------------------Distribution of species----------------------------

                                               Log       Log       Log    mole V
   Species          Molality    Activity  Molality  Activity     Gamma   cm³/mol

   OH-             1.013e-07   1.012e-07    -6.995    -6.995    -0.000     -4.14
   H+              1.000e-07   1.000e-07    -7.000    -7.000    -0.000      0.00
   H2O             5.551e+01   1.000e+00     1.744    -0.000     0.000     18.07
H(0)          0.000e+00
   H2              0.000e+00   0.000e+00   -40.535   -40.535     0.000     28.61
O(0)          9.811e-12
   O2              4.905e-12   4.905e-12   -11.309   -11.309     0.000     30.40
Xylene        7.961e-05
   Xylene          7.961e-05   7.961e-05    -4.099    -4.099     0.000     (0)  

------------------------------Saturation indices-------------------------------

  Phase               SI** log IAP   log K(298 K,   1 atm)

  H2(g)           -37.43    -40.54   -3.10  H2
  H2O(g)           -1.50     -0.00    1.50  H2O
  O2(g)            -8.42    -11.31   -2.89  O2

**For a gas, SI = log10(fugacity). Fugacity = pressure * phi / 1 atm.
  For ideal gases, phi = 1.

Reaction step 18.

Using solution 1.	
Using kinetics 1.	

Kinetics 1.	

	Time step: 12000 seconds  (Incremented time: 216000 seconds)

	Rate name       Delta Moles Total Moles   Reactant        Coefficient

	S_degradation     4.844e-07   2.010e-06   Xylene                    1
	Biomass           2.198e-06   9.196e-06   C                         0

-----------------------------Solution composition------------------------------

	Elements           Molality       Moles

	Xylene            7.912e-05   7.912e-05

----------------------------Description of solution----------------------------

                                       pH  =   7.000      Charge balance
                                       pe  =  11.693      Adjusted to redox equilibrium
      Specific Conductance (µS/cm,  25°C)  = 0
                          Density (g/cm³)  =   0.99705
                               Volume (L)  =   1.00297
                        Activity of water  =   1.000
                 Ionic strength (mol/kgw)  =   1.006e-07
                       Mass of water (kg)  =   1.000e+00
                 Total alkalinity (eq/kg)  =   1.216e-09
                         Temperature (°C)  =  25.00
                  Electrical balance (eq)  =  -1.216e-09
 Percent error, 100*(Cat-|An|)/(Cat+|An|)  =  -0.60
                               Iterations  =  12
                                  Total H  = 1.110124e+02
                                  Total O  = 5.550622e+01

----------------------------Distribution of species----------------------------

                                               Log       Log       Log    mole V
   Species          Molality    Activity  Molality  Activity     Gamma   cm³/mol

   OH-             1.013e-07   1.012e-07    -6.995    -6.995    -0.000     -4.14
   H+              1.000e-07   1.000e-07    -7.000    -7.000    -0.000      0.00
   H2O             5.551e+01   1.000e+00     1.744    -0.000     0.000     18.07
H(0)          0.000e+00
   H2              0.000e+00   0.000e+00   -40.535   -40.535     0.000     28.61
O(0)          9.818e-12
   O2              4.909e-12   4.909e-12   -11.309   -11.309     0.000     30.40
Xylene        7.912e-05
   Xylene          7.912e-05   7.912e-05    -4.102    -4.102     0.000     (0)  

------------------------------Saturation indices-------------------------------

  Phase               SI** log IAP   log K(298 K,   1 atm)

  H2(g)           -37.43    -40.54   -3.10  H2
  H2O(g)           -1.50     -0.00    1.50  H2O
  O2(g)            -8.42    -11.31   -2.89  O2

**For a gas, SI = log10(fugacity). Fugacity = pressure * phi / 1 atm.
  For ideal gases, phi = 1.

Reaction step 19.

Using solution 1.	
Using kinetics 1.	

Kinetics 1.	

	Time step: 12000 seconds  (Incremented time: 228000 seconds)

	Rate name       Delta Moles Total Moles   Reactant        Coefficient

	S_degradation     6.361e-07   2.646e-06   Xylene                    1
	Biomass           2.887e-06   1.208e-05   C                         0

-----------------------------Solution composition------------------------------

	Elements           Molality       Moles

	Xylene            7.849e-05   7.849e-05

----------------------------Description of solution----------------------------

                                       pH  =   7.000      Charge balance
                                       pe  =  11.693      Adjusted to redox equilibrium
      Specific Conductance (µS/cm,  25°C)  = 0
                          Density (g/cm³)  =   0.99705
                               Volume (L)  =   1.00297
                        Activity of water  =   1.000
                 Ionic strength (mol/kgw)  =   1.006e-07
                       Mass of water (kg)  =   1.000e+00
                 Total alkalinity (eq/kg)  =   1.216e-09
                         Temperature (°C)  =  25.00
                  Electrical balance (eq)  =  -1.216e-09
 Percent error, 100*(Cat-|An|)/(Cat+|An|)  =  -0.60
                               Iterations  =  12
                                  Total H  = 1.110124e+02
                                  Total O  = 5.550622e+01

----------------------------Distribution of species----------------------------

                                               Log       Log       Log    mole V
   Species          Molality    Activity  Molality  Activity     Gamma   cm³/mol

   OH-             1.013e-07   1.012e-07    -6.995    -6.995    -0.000     -4.14
   H+              1.000e-07   1.000e-07    -7.000    -7.000    -0.000      0.00
   H2O             5.551e+01   1.000e+00     1.744    -0.000     0.000     18.07
H(0)          0.000e+00
   H2              0.000e+00   0.000e+00   -40.535   -40.535     0.000     28.61
O(0)          9.818e-12
   O2              4.909e-12   4.909e-12   -11.309   -11.309     0.000     30.40
Xylene        7.849e-05
   Xylene          7.849e-05   7.849e-05    -4.105    -4.105     0.000     (0)  

------------------------------Saturation indices-------------------------------

  Phase               SI** log IAP   log K(298 K,   1 atm)

  H2(g)           -37.43    -40.54   -3.10  H2
  H2O(g)           -1.50     -0.00    1.50  H2O
  O2(g)            -8.42    -11.31   -2.89  O2

**For a gas, SI = log10(fugacity). Fugacity = pressure * phi / 1 atm.
  For ideal gases, phi = 1.

Reaction step 20.

Using solution 1.	
Using kinetics 1.	

Kinetics 1.	

	Time step: 12000 seconds  (Incremented time: 240000 seconds)

	Rate name       Delta Moles Total Moles   Reactant        Coefficient

	S_degradation     8.349e-07   3.481e-06   Xylene                    1
	Biomass           3.789e-06   1.587e-05   C                         0

-----------------------------Solution composition------------------------------

	Elements           Molality       Moles

	Xylene            7.765e-05   7.765e-05

----------------------------Description of solution----------------------------

                                       pH  =   7.000      Charge balance
                                       pe  =  11.693      Adjusted to redox equilibrium
      Specific Conductance (µS/cm,  25°C)  = 0
                          Density (g/cm³)  =   0.99705
                               Volume (L)  =   1.00297
                        Activity of water  =   1.000
                 Ionic strength (mol/kgw)  =   1.006e-07
                       Mass of water (kg)  =   1.000e+00
                 Total alkalinity (eq/kg)  =   1.216e-09
                         Temperature (°C)  =  25.00
                  Electrical balance (eq)  =  -1.216e-09
 Percent error, 100*(Cat-|An|)/(Cat+|An|)  =  -0.60
                               Iterations  =  12
                                  Total H  = 1.110124e+02
                                  Total O  = 5.550622e+01

----------------------------Distribution of species----------------------------

                                               Log       Log       Log    mole V
   Species          Molality    Activity  Molality  Activity     Gamma   cm³/mol

   OH-             1.013e-07   1.012e-07    -6.995    -6.995    -0.000     -4.14
   H+              1.000e-07   1.000e-07    -7.000    -7.000    -0.000      0.00
   H2O             5.551e+01   1.000e+00     1.744    -0.000     0.000     18.07
H(0)          0.000e+00
   H2              0.000e+00   0.000e+00   -40.535   -40.535     0.000     28.61
O(0)          9.818e-12
   O2              4.909e-12   4.909e-12   -11.309   -11.309     0.000     30.40
Xylene        7.765e-05
   Xylene          7.765e-05   7.765e-05    -4.110    -4.110     0.000     (0)  

------------------------------Saturation indices-------------------------------

  Phase               SI** log IAP   log K(298 K,   1 atm)

  H2(g)           -37.43    -40.54   -3.10  H2
  H2O(g)           -1.50     -0.00    1.50  H2O
  O2(g)            -8.42    -11.31   -2.89  O2

**For a gas, SI = log10(fugacity). Fugacity = pressure * phi / 1 atm.
  For ideal gases, phi = 1.

Reaction step 21.

Using solution 1.	
Using kinetics 1.	

Kinetics 1.	

	Time step: 12000 seconds  (Incremented time: 252000 seconds)

	Rate name       Delta Moles Total Moles   Reactant        Coefficient

	S_degradation     1.095e-06   4.576e-06   Xylene                    1
	Biomass           4.972e-06   2.084e-05   C                         0

-----------------------------Solution composition------------------------------

	Elements           Molality       Moles

	Xylene            7.656e-05   7.656e-05

----------------------------Description of solution----------------------------

                                       pH  =   7.000      Charge balance
                                       pe  =  11.693      Adjusted to redox equilibrium
      Specific Conductance (µS/cm,  25°C)  = 0
                          Density (g/cm³)  =   0.99705
                               Volume (L)  =   1.00297
                        Activity of water  =   1.000
                 Ionic strength (mol/kgw)  =   1.006e-07
                       Mass of water (kg)  =   1.000e+00
                 Total alkalinity (eq/kg)  =   1.216e-09
                         Temperature (°C)  =  25.00
                  Electrical balance (eq)  =  -1.216e-09
 Percent error, 100*(Cat-|An|)/(Cat+|An|)  =  -0.60
                               Iterations  =  12
                                  Total H  = 1.110124e+02
                                  Total O  = 5.550622e+01

----------------------------Distribution of species----------------------------

                                               Log       Log       Log    mole V
   Species          Molality    Activity  Molality  Activity     Gamma   cm³/mol

   OH-             1.013e-07   1.012e-07    -6.995    -6.995    -0.000     -4.14
   H+              1.000e-07   1.000e-07    -7.000    -7.000    -0.000      0.00
   H2O             5.551e+01   1.000e+00     1.744    -0.000     0.000     18.07
H(0)          0.000e+00
   H2              0.000e+00   0.000e+00   -40.535   -40.535     0.000     28.61
O(0)          9.818e-12
   O2              4.909e-12   4.909e-12   -11.309   -11.309     0.000     30.40
Xylene        7.656e-05
   Xylene          7.656e-05   7.656e-05    -4.116    -4.116     0.000     (0)  

------------------------------Saturation indices-------------------------------

  Phase               SI** log IAP   log K(298 K,   1 atm)

  H2(g)           -37.43    -40.54   -3.10  H2
  H2O(g)           -1.50     -0.00    1.50  H2O
  O2(g)            -8.42    -11.31   -2.89  O2

**For a gas, SI = log10(fugacity). Fugacity = pressure * phi / 1 atm.
  For ideal gases, phi = 1.

Reaction step 22.

Using solution 1.	
Using kinetics 1.	

Kinetics 1.	

	Time step: 12000 seconds  (Incremented time: 264000 seconds)

	Rate name       Delta Moles Total Moles   Reactant        Coefficient

	S_degradation     1.436e-06   6.012e-06   Xylene                    1
	Biomass           6.518e-06   2.736e-05   C                         0

-----------------------------Solution composition------------------------------

	Elements           Molality       Moles

	Xylene            7.512e-05   7.512e-05

----------------------------Description of solution----------------------------

                                       pH  =   7.000      Charge balance
                                       pe  =  11.693      Adjusted to redox equilibrium
      Specific Conductance (µS/cm,  25°C)  = 0
                          Density (g/cm³)  =   0.99705
                               Volume (L)  =   1.00297
                        Activity of water  =   1.000
                 Ionic strength (mol/kgw)  =   1.006e-07
                       Mass of water (kg)  =   1.000e+00
                 Total alkalinity (eq/kg)  =   1.216e-09
                         Temperature (°C)  =  25.00
                  Electrical balance (eq)  =  -1.216e-09
 Percent error, 100*(Cat-|An|)/(Cat+|An|)  =  -0.60
                               Iterations  =  14
                                  Total H  = 1.110124e+02
                                  Total O  = 5.550622e+01

----------------------------Distribution of species----------------------------

                                               Log       Log       Log    mole V
   Species          Molality    Activity  Molality  Activity     Gamma   cm³/mol

   OH-             1.013e-07   1.012e-07    -6.995    -6.995    -0.000     -4.14
   H+              1.000e-07   1.000e-07    -7.000    -7.000    -0.000      0.00
   H2O             5.551e+01   1.000e+00     1.744    -0.000     0.000     18.07
H(0)          0.000e+00
   H2              0.000e+00   0.000e+00   -40.535   -40.535     0.000     28.61
O(0)          9.818e-12
   O2              4.909e-12   4.909e-12   -11.309   -11.309     0.000     30.40
Xylene        7.512e-05
   Xylene          7.512e-05   7.512e-05    -4.124    -4.124     0.000     (0)  

------------------------------Saturation indices-------------------------------

  Phase               SI** log IAP   log K(298 K,   1 atm)

  H2(g)           -37.43    -40.54   -3.10  H2
  H2O(g)           -1.50     -0.00    1.50  H2O
  O2(g)            -8.42    -11.31   -2.89  O2

**For a gas, SI = log10(fugacity). Fugacity = pressure * phi / 1 atm.
  For ideal gases, phi = 1.

Reaction step 23.

Using solution 1.	
Using kinetics 1.	

Kinetics 1.	

	Time step: 12000 seconds  (Incremented time: 276000 seconds)

	Rate name       Delta Moles Total Moles   Reactant        Coefficient

	S_degradation     1.881e-06   7.893e-06   Xylene                    1
	Biomass           8.536e-06   3.590e-05   C                         0

-----------------------------Solution composition------------------------------

	Elements           Molality       Moles

	Xylene            7.324e-05   7.324e-05

----------------------------Description of solution----------------------------

                                       pH  =   7.000      Charge balance
                                       pe  =  11.693      Adjusted to redox equilibrium
      Specific Conductance (µS/cm,  25°C)  = 0
                          Density (g/cm³)  =   0.99705
                               Volume (L)  =   1.00297
                        Activity of water  =   1.000
                 Ionic strength (mol/kgw)  =   1.006e-07
                       Mass of water (kg)  =   1.000e+00
                 Total alkalinity (eq/kg)  =   1.216e-09
                         Temperature (°C)  =  25.00
                  Electrical balance (eq)  =  -1.216e-09
 Percent error, 100*(Cat-|An|)/(Cat+|An|)  =  -0.60
                               Iterations  =  15
                                  Total H  = 1.110124e+02
                                  Total O  = 5.550622e+01

----------------------------Distribution of species----------------------------

                                               Log       Log       Log    mole V
   Species          Molality    Activity  Molality  Activity     Gamma   cm³/mol

   OH-             1.013e-07   1.012e-07    -6.995    -6.995    -0.000     -4.14
   H+              1.000e-07   1.000e-07    -7.000    -7.000    -0.000      0.00
   H2O             5.551e+01   1.000e+00     1.744    -0.000     0.000     18.07
H(0)          0.000e+00
   H2              0.000e+00   0.000e+00   -40.535   -40.535     0.000     28.61
O(0)          9.811e-12
   O2              4.905e-12   4.905e-12   -11.309   -11.309     0.000     30.40
Xylene        7.324e-05
   Xylene          7.324e-05   7.324e-05    -4.135    -4.135     0.000     (0)  

------------------------------Saturation indices-------------------------------

  Phase               SI** log IAP   log K(298 K,   1 atm)

  H2(g)           -37.43    -40.54   -3.10  H2
  H2O(g)           -1.50     -0.00    1.50  H2O
  O2(g)            -8.42    -11.31   -2.89  O2

**For a gas, SI = log10(fugacity). Fugacity = pressure * phi / 1 atm.
  For ideal gases, phi = 1.

Reaction step 24.

Using solution 1.	
Using kinetics 1.	

Kinetics 1.	

	Time step: 12000 seconds  (Incremented time: 288000 seconds)

	Rate name       Delta Moles Total Moles   Reactant        Coefficient

	S_degradation     2.460e-06   1.035e-05   Xylene                    1
	Biomass           1.116e-05   4.706e-05   C                         0

-----------------------------Solution composition------------------------------

	Elements           Molality       Moles

	Xylene            7.078e-05   7.078e-05

----------------------------Description of solution----------------------------

                                       pH  =   7.000      Charge balance
                                       pe  =  11.693      Adjusted to redox equilibrium
      Specific Conductance (µS/cm,  25°C)  = 0
                          Density (g/cm³)  =   0.99705
                               Volume (L)  =   1.00297
                        Activity of water  =   1.000
                 Ionic strength (mol/kgw)  =   1.006e-07
                       Mass of water (kg)  =   1.000e+00
                 Total alkalinity (eq/kg)  =   1.216e-09
                         Temperature (°C)  =  25.00
                  Electrical balance (eq)  =  -1.216e-09
 Percent error, 100*(Cat-|An|)/(Cat+|An|)  =  -0.60
                               Iterations  =  16
                                  Total H  = 1.110124e+02
                                  Total O  = 5.550622e+01

----------------------------Distribution of species----------------------------

                                               Log       Log       Log    mole V
   Species          Molality    Activity  Molality  Activity     Gamma   cm³/mol

   OH-             1.013e-07   1.012e-07    -6.995    -6.995    -0.000     -4.14
   H+              1.000e-07   1.000e-07    -7.000    -7.000    -0.000      0.00
   H2O             5.551e+01   1.000e+00     1.744    -0.000     0.000     18.07
H(0)          0.000e+00
   H2              0.000e+00   0.000e+00   -40.535   -40.535     0.000     28.61
O(0)          9.811e-12
   O2              4.905e-12   4.905e-12   -11.309   -11.309     0.000     30.40
Xylene        7.078e-05
   Xylene          7.078e-05   7.078e-05    -4.150    -4.150     0.000     (0)  

------------------------------Saturation indices-------------------------------

  Phase               SI** log IAP   log K(298 K,   1 atm)

  H2(g)           -37.43    -40.54   -3.10  H2
  H2O(g)           -1.50     -0.00    1.50  H2O
  O2(g)            -8.42    -11.31   -2.89  O2

**For a gas, SI = log10(fugacity). Fugacity = pressure * phi / 1 atm.
  For ideal gases, phi = 1.

Reaction step 25.

Using solution 1.	
Using kinetics 1.	

Kinetics 1.	

	Time step: 12000 seconds  (Incremented time: 300000 seconds)

	Rate name       Delta Moles Total Moles   Reactant        Coefficient

	S_degradation     3.211e-06   1.356e-05   Xylene                    1
	Biomass           1.457e-05   6.164e-05   C                         0

-----------------------------Solution composition------------------------------

	Elements           Molality       Moles

	Xylene            6.757e-05   6.757e-05

----------------------------Description of solution----------------------------

                                       pH  =   7.000      Charge balance
                                       pe  =  11.693      Adjusted to redox equilibrium
      Specific Conductance (µS/cm,  25°C)  = 0
                          Density (g/cm³)  =   0.99705
                               Volume (L)  =   1.00297
                        Activity of water  =   1.000
                 Ionic strength (mol/kgw)  =   1.006e-07
                       Mass of water (kg)  =   1.000e+00
                 Total alkalinity (eq/kg)  =   1.216e-09
                         Temperature (°C)  =  25.00
                  Electrical balance (eq)  =  -1.216e-09
 Percent error, 100*(Cat-|An|)/(Cat+|An|)  =  -0.60
                               Iterations  =  16
                                  Total H  = 1.110124e+02
                                  Total O  = 5.550622e+01

----------------------------Distribution of species----------------------------

                                               Log       Log       Log    mole V
   Species          Molality    Activity  Molality  Activity     Gamma   cm³/mol

   OH-             1.013e-07   1.012e-07    -6.995    -6.995    -0.000     -4.14
   H+              1.000e-07   1.000e-07    -7.000    -7.000    -0.000      0.00
   H2O             5.551e+01   1.000e+00     1.744    -0.000     0.000     18.07
H(0)          0.000e+00
   H2              0.000e+00   0.000e+00   -40.535   -40.535     0.000     28.61
O(0)          9.811e-12
   O2              4.905e-12   4.905e-12   -11.309   -11.309     0.000     30.40
Xylene        6.757e-05
   Xylene          6.757e-05   6.757e-05    -4.170    -4.170     0.000     (0)  

------------------------------Saturation indices-------------------------------

  Phase               SI** log IAP   log K(298 K,   1 atm)

  H2(g)           -37.43    -40.54   -3.10  H2
  H2O(g)           -1.50     -0.00    1.50  H2O
  O2(g)            -8.42    -11.31   -2.89  O2

**For a gas, SI = log10(fugacity). Fugacity = pressure * phi / 1 atm.
  For ideal gases, phi = 1.

Reaction step 26.

Using solution 1.	
Using kinetics 1.	

Kinetics 1.	

	Time step: 12000 seconds  (Incremented time: 312000 seconds)

	Rate name       Delta Moles Total Moles   Reactant        Coefficient

	S_degradation     4.180e-06   1.774e-05   Xylene                    1
	Biomass           1.897e-05   8.061e-05   C                         0

-----------------------------Solution composition------------------------------

	Elements           Molality       Moles

	Xylene            6.339e-05   6.339e-05

----------------------------Description of solution----------------------------

                                       pH  =   7.000      Charge balance
                                       pe  =  11.693      Adjusted to redox equilibrium
      Specific Conductance (µS/cm,  25°C)  = 0
                          Density (g/cm³)  =   0.99705
                               Volume (L)  =   1.00297
                        Activity of water  =   1.000
                 Ionic strength (mol/kgw)  =   1.006e-07
                       Mass of water (kg)  =   1.000e+00
                 Total alkalinity (eq/kg)  =   1.216e-09
                         Temperature (°C)  =  25.00
                  Electrical balance (eq)  =  -1.216e-09
 Percent error, 100*(Cat-|An|)/(Cat+|An|)  =  -0.60
                               Iterations  =  17
                                  Total H  = 1.110124e+02
                                  Total O  = 5.550622e+01

----------------------------Distribution of species----------------------------

                                               Log       Log       Log    mole V
   Species          Molality    Activity  Molality  Activity     Gamma   cm³/mol

   OH-             1.013e-07   1.012e-07    -6.995    -6.995    -0.000     -4.14
   H+              1.000e-07   1.000e-07    -7.000    -7.000    -0.000      0.00
   H2O             5.551e+01   1.000e+00     1.744    -0.000     0.000     18.07
H(0)          0.000e+00
   H2              0.000e+00   0.000e+00   -40.535   -40.535     0.000     28.61
O(0)          9.811e-12
   O2              4.905e-12   4.905e-12   -11.309   -11.309     0.000     30.40
Xylene        6.339e-05
   Xylene          6.339e-05   6.339e-05    -4.198    -4.198     0.000     (0)  

------------------------------Saturation indices-------------------------------

  Phase               SI** log IAP   log K(298 K,   1 atm)

  H2(g)           -37.43    -40.54   -3.10  H2
  H2O(g)           -1.50     -0.00    1.50  H2O
  O2(g)            -8.42    -11.31   -2.89  O2

**For a gas, SI = log10(fugacity). Fugacity = pressure * phi / 1 atm.
  For ideal gases, phi = 1.

Reaction step 27.

Using solution 1.	
Using kinetics 1.	

Kinetics 1.	

	Time step: 12000 seconds  (Incremented time: 324000 seconds)

	Rate name       Delta Moles Total Moles   Reactant        Coefficient

	S_degradation     5.416e-06   2.316e-05   Xylene                    1
	Biomass           2.458e-05   1.052e-04   C                         0

-----------------------------Solution composition------------------------------

	Elements           Molality       Moles

	Xylene            5.797e-05   5.797e-05

----------------------------Description of solution----------------------------

                                       pH  =   7.000      Charge balance
                                       pe  =  11.693      Adjusted to redox equilibrium
      Specific Conductance (µS/cm,  25°C)  = 0
                          Density (g/cm³)  =   0.99705
                               Volume (L)  =   1.00297
                        Activity of water  =   1.000
                 Ionic strength (mol/kgw)  =   1.006e-07
                       Mass of water (kg)  =   1.000e+00
                 Total alkalinity (eq/kg)  =   1.216e-09
                         Temperature (°C)  =  25.00
                  Electrical balance (eq)  =  -1.216e-09
 Percent error, 100*(Cat-|An|)/(Cat+|An|)  =  -0.60
                               Iterations  =  17
                                  Total H  = 1.110124e+02
                                  Total O  = 5.550622e+01

----------------------------Distribution of species----------------------------

                                               Log       Log       Log    mole V
   Species          Molality    Activity  Molality  Activity     Gamma   cm³/mol

   OH-             1.013e-07   1.012e-07    -6.995    -6.995    -0.000     -4.14
   H+              1.000e-07   1.000e-07    -7.000    -7.000    -0.000      0.00
   H2O             5.551e+01   1.000e+00     1.744    -0.000     0.000     18.07
H(0)          0.000e+00
   H2              0.000e+00   0.000e+00   -40.535   -40.535     0.000     28.61
O(0)          9.818e-12
   O2              4.909e-12   4.909e-12   -11.309   -11.309     0.000     30.40
Xylene        5.797e-05
   Xylene          5.797e-05   5.797e-05    -4.237    -4.237     0.000     (0)  

------------------------------Saturation indices-------------------------------

  Phase               SI** log IAP   log K(298 K,   1 atm)

  H2(g)           -37.43    -40.54   -3.10  H2
  H2O(g)           -1.50     -0.00    1.50  H2O
  O2(g)            -8.42    -11.31   -2.89  O2

**For a gas, SI = log10(fugacity). Fugacity = pressure * phi / 1 atm.
  For ideal gases, phi = 1.

Reaction step 28.

Using solution 1.	
Using kinetics 1.	

Kinetics 1.	

	Time step: 12000 seconds  (Incremented time: 336000 seconds)

	Rate name       Delta Moles Total Moles   Reactant        Coefficient

	S_degradation     6.969e-06   3.013e-05   Xylene                    1
	Biomass           3.163e-05   1.368e-04   C                         0

-----------------------------Solution composition------------------------------

	Elements           Molality       Moles

	Xylene            5.100e-05   5.100e-05

----------------------------Description of solution----------------------------

                                       pH  =   7.000      Charge balance
                                       pe  =  11.693      Adjusted to redox equilibrium
      Specific Conductance (µS/cm,  25°C)  = 0
                          Density (g/cm³)  =   0.99705
                               Volume (L)  =   1.00297
                        Activity of water  =   1.000
                 Ionic strength (mol/kgw)  =   1.006e-07
                       Mass of water (kg)  =   1.000e+00
                 Total alkalinity (eq/kg)  =   1.216e-09
                         Temperature (°C)  =  25.00
                  Electrical balance (eq)  =  -1.216e-09
 Percent error, 100*(Cat-|An|)/(Cat+|An|)  =  -0.60
                               Iterations  =  18
                                  Total H  = 1.110124e+02
                                  Total O  = 5.550622e+01

----------------------------Distribution of species----------------------------

                                               Log       Log       Log    mole V
   Species          Molality    Activity  Molality  Activity     Gamma   cm³/mol

   OH-             1.013e-07   1.012e-07    -6.995    -6.995    -0.000     -4.14
   H+              1.000e-07   1.000e-07    -7.000    -7.000    -0.000      0.00
   H2O             5.551e+01   1.000e+00     1.744    -0.000     0.000     18.07
H(0)          0.000e+00
   H2              0.000e+00   0.000e+00   -40.535   -40.535     0.000     28.61
O(0)          9.818e-12
   O2              4.909e-12   4.909e-12   -11.309   -11.309     0.000     30.40
Xylene        5.100e-05
   Xylene          5.100e-05   5.100e-05    -4.292    -4.292     0.000     (0)  

------------------------------Saturation indices-------------------------------

  Phase               SI** log IAP   log K(298 K,   1 atm)

  H2(g)           -37.43    -40.54   -3.10  H2
  H2O(g)           -1.50     -0.00    1.50  H2O
  O2(g)            -8.42    -11.31   -2.89  O2

**For a gas, SI = log10(fugacity). Fugacity = pressure * phi / 1 atm.
  For ideal gases, phi = 1.

Reaction step 29.

Using solution 1.	
Using kinetics 1.	

Kinetics 1.	

	Time step: 12000 seconds  (Incremented time: 348000 seconds)

	Rate name       Delta Moles Total Moles   Reactant        Coefficient

	S_degradation     8.859e-06   3.899e-05   Xylene                    1
	Biomass           4.021e-05   1.770e-04   C                         0

-----------------------------Solution composition------------------------------

	Elements           Molality       Moles

	Xylene            4.214e-05   4.214e-05

----------------------------Description of solution----------------------------

                                       pH  =   7.000      Charge balance
                                       pe  =  11.693      Adjusted to redox equilibrium
      Specific Conductance (µS/cm,  25°C)  = 0
                          Density (g/cm³)  =   0.99705
                               Volume (L)  =   1.00297
                        Activity of water  =   1.000
[...]

                                               Log       Log       Log    mole V
   Species          Molality    Activity  Molality  Activity     Gamma   cm³/mol

   OH-             1.013e-07   1.012e-07    -6.995    -6.995    -0.000     -4.14
   H+              1.000e-07   1.000e-07    -7.000    -7.000    -0.000      0.00
   H2O             5.551e+01   1.000e+00     1.744    -0.000     0.000     18.07
H(0)          0.000e+00
   H2              0.000e+00   0.000e+00   -40.536   -40.536     0.000     28.61
O(0)          9.825e-12
   O2              4.913e-12   4.913e-12   -11.309   -11.309     0.000     30.40
Xylene        9.931e-10
   Xylene          9.931e-10   9.931e-10    -9.003    -9.003     0.000     (0)  

------------------------------Saturation indices-------------------------------

  Phase               SI** log IAP   log K(298 K,   1 atm)

  H2(g)           -37.43    -40.54   -3.10  H2
  H2O(g)           -1.50     -0.00    1.50  H2O
  O2(g)            -8.42    -11.31   -2.89  O2

**For a gas, SI = log10(fugacity). Fugacity = pressure * phi / 1 atm.
  For ideal gases, phi = 1.

Reaction step 44.

Using solution 1.	
Using kinetics 1.	

Kinetics 1.	

	Time step: 12000 seconds  (Incremented time: 528000 seconds)

	Rate name       Delta Moles Total Moles   Reactant        Coefficient

	S_degradation    -0.000e+00   8.113e-05   Xylene                    1
	Biomass          -0.000e+00   3.683e-04   C                         0

-----------------------------Solution composition------------------------------

	Elements           Molality       Moles

	Xylene            9.931e-10   9.931e-10

----------------------------Description of solution----------------------------

                                       pH  =   7.000      Charge balance
                                       pe  =  11.693      Adjusted to redox equilibrium
      Specific Conductance (µS/cm,  25°C)  = 0
                          Density (g/cm³)  =   0.99704
                               Volume (L)  =   1.00297
                        Activity of water  =   1.000
                 Ionic strength (mol/kgw)  =   1.006e-07
                       Mass of water (kg)  =   1.000e+00
                 Total alkalinity (eq/kg)  =   1.216e-09
                         Temperature (°C)  =  25.00
                  Electrical balance (eq)  =  -1.216e-09
 Percent error, 100*(Cat-|An|)/(Cat+|An|)  =  -0.60
                               Iterations  =   0
                                  Total H  = 1.110124e+02
                                  Total O  = 5.550622e+01

----------------------------Distribution of species----------------------------

                                               Log       Log       Log    mole V
   Species          Molality    Activity  Molality  Activity     Gamma   cm³/mol

   OH-             1.013e-07   1.012e-07    -6.995    -6.995    -0.000     -4.14
   H+              1.000e-07   1.000e-07    -7.000    -7.000    -0.000      0.00
   H2O             5.551e+01   1.000e+00     1.744    -0.000     0.000     18.07
H(0)          0.000e+00
   H2              0.000e+00   0.000e+00   -40.536   -40.536     0.000     28.61
O(0)          9.825e-12
   O2              4.913e-12   4.913e-12   -11.309   -11.309     0.000     30.40
Xylene        9.931e-10
   Xylene          9.931e-10   9.931e-10    -9.003    -9.003     0.000     (0)  

------------------------------Saturation indices-------------------------------

  Phase               SI** log IAP   log K(298 K,   1 atm)

  H2(g)           -37.43    -40.54   -3.10  H2
  H2O(g)           -1.50     -0.00    1.50  H2O
  O2(g)            -8.42    -11.31   -2.89  O2

**For a gas, SI = log10(fugacity). Fugacity = pressure * phi / 1 atm.
  For ideal gases, phi = 1.

Reaction step 45.

Using solution 1.	
Using kinetics 1.	

Kinetics 1.	

	Time step: 12000 seconds  (Incremented time: 540000 seconds)

	Rate name       Delta Moles Total Moles   Reactant        Coefficient

	S_degradation    -0.000e+00   8.113e-05   Xylene                    1
	Biomass          -0.000e+00   3.683e-04   C                         0

-----------------------------Solution composition------------------------------

	Elements           Molality       Moles

	Xylene            9.931e-10   9.931e-10

----------------------------Description of solution----------------------------

                                       pH  =   7.000      Charge balance
                                       pe  =  11.693      Adjusted to redox equilibrium
      Specific Conductance (µS/cm,  25°C)  = 0
                          Density (g/cm³)  =   0.99704
                               Volume (L)  =   1.00297
                        Activity of water  =   1.000
                 Ionic strength (mol/kgw)  =   1.006e-07
                       Mass of water (kg)  =   1.000e+00
                 Total alkalinity (eq/kg)  =   1.216e-09
                         Temperature (°C)  =  25.00
                  Electrical balance (eq)  =  -1.216e-09
 Percent error, 100*(Cat-|An|)/(Cat+|An|)  =  -0.60
                               Iterations  =   0
                                  Total H  = 1.110124e+02
                                  Total O  = 5.550622e+01

----------------------------Distribution of species----------------------------

                                               Log       Log       Log    mole V
   Species          Molality    Activity  Molality  Activity     Gamma   cm³/mol

   OH-             1.013e-07   1.012e-07    -6.995    -6.995    -0.000     -4.14
   H+              1.000e-07   1.000e-07    -7.000    -7.000    -0.000      0.00
   H2O             5.551e+01   1.000e+00     1.744    -0.000     0.000     18.07
H(0)          0.000e+00
   H2              0.000e+00   0.000e+00   -40.536   -40.536     0.000     28.61
O(0)          9.825e-12
   O2              4.913e-12   4.913e-12   -11.309   -11.309     0.000     30.40
Xylene        9.931e-10
   Xylene          9.931e-10   9.931e-10    -9.003    -9.003     0.000     (0)  

------------------------------Saturation indices-------------------------------

  Phase               SI** log IAP   log K(298 K,   1 atm)

  H2(g)           -37.43    -40.54   -3.10  H2
  H2O(g)           -1.50     -0.00    1.50  H2O
  O2(g)            -8.42    -11.31   -2.89  O2

**For a gas, SI = log10(fugacity). Fugacity = pressure * phi / 1 atm.
  For ideal gases, phi = 1.

Reaction step 46.

Using solution 1.	
Using kinetics 1.	

Kinetics 1.	

	Time step: 12000 seconds  (Incremented time: 552000 seconds)

	Rate name       Delta Moles Total Moles   Reactant        Coefficient

	S_degradation    -0.000e+00   8.113e-05   Xylene                    1
	Biomass          -0.000e+00   3.683e-04   C                         0

-----------------------------Solution composition------------------------------

	Elements           Molality       Moles

	Xylene            9.931e-10   9.931e-10

----------------------------Description of solution----------------------------

                                       pH  =   7.000      Charge balance
                                       pe  =  11.693      Adjusted to redox equilibrium
      Specific Conductance (µS/cm,  25°C)  = 0
                          Density (g/cm³)  =   0.99704
                               Volume (L)  =   1.00297
                        Activity of water  =   1.000
                 Ionic strength (mol/kgw)  =   1.006e-07
                       Mass of water (kg)  =   1.000e+00
                 Total alkalinity (eq/kg)  =   1.216e-09
                         Temperature (°C)  =  25.00
                  Electrical balance (eq)  =  -1.216e-09
 Percent error, 100*(Cat-|An|)/(Cat+|An|)  =  -0.60
                               Iterations  =   0
                                  Total H  = 1.110124e+02
                                  Total O  = 5.550622e+01

----------------------------Distribution of species----------------------------

                                               Log       Log       Log    mole V
   Species          Molality    Activity  Molality  Activity     Gamma   cm³/mol

   OH-             1.013e-07   1.012e-07    -6.995    -6.995    -0.000     -4.14
   H+              1.000e-07   1.000e-07    -7.000    -7.000    -0.000      0.00
   H2O             5.551e+01   1.000e+00     1.744    -0.000     0.000     18.07
H(0)          0.000e+00
   H2              0.000e+00   0.000e+00   -40.536   -40.536     0.000     28.61
O(0)          9.825e-12
   O2              4.913e-12   4.913e-12   -11.309   -11.309     0.000     30.40
Xylene        9.931e-10
   Xylene          9.931e-10   9.931e-10    -9.003    -9.003     0.000     (0)  

------------------------------Saturation indices-------------------------------

  Phase               SI** log IAP   log K(298 K,   1 atm)

  H2(g)           -37.43    -40.54   -3.10  H2
  H2O(g)           -1.50     -0.00    1.50  H2O
  O2(g)            -8.42    -11.31   -2.89  O2

**For a gas, SI = log10(fugacity). Fugacity = pressure * phi / 1 atm.
  For ideal gases, phi = 1.

Reaction step 47.

Using solution 1.	
Using kinetics 1.	

Kinetics 1.	

	Time step: 12000 seconds  (Incremented time: 564000 seconds)

	Rate name       Delta Moles Total Moles   Reactant        Coefficient

	S_degradation    -0.000e+00   8.113e-05   Xylene                    1
	Biomass          -0.000e+00   3.683e-04   C                         0

-----------------------------Solution composition------------------------------

	Elements           Molality       Moles

	Xylene            9.931e-10   9.931e-10

----------------------------Description of solution----------------------------

                                       pH  =   7.000      Charge balance
                                       pe  =  11.693      Adjusted to redox equilibrium
      Specific Conductance (µS/cm,  25°C)  = 0
                          Density (g/cm³)  =   0.99704
                               Volume (L)  =   1.00297
                        Activity of water  =   1.000
                 Ionic strength (mol/kgw)  =   1.006e-07
                       Mass of water (kg)  =   1.000e+00
                 Total alkalinity (eq/kg)  =   1.216e-09
                         Temperature (°C)  =  25.00
                  Electrical balance (eq)  =  -1.216e-09
 Percent error, 100*(Cat-|An|)/(Cat+|An|)  =  -0.60
                               Iterations  =   0
                                  Total H  = 1.110124e+02
                                  Total O  = 5.550622e+01

----------------------------Distribution of species----------------------------

                                               Log       Log       Log    mole V
   Species          Molality    Activity  Molality  Activity     Gamma   cm³/mol

   OH-             1.013e-07   1.012e-07    -6.995    -6.995    -0.000     -4.14
   H+              1.000e-07   1.000e-07    -7.000    -7.000    -0.000      0.00
   H2O             5.551e+01   1.000e+00     1.744    -0.000     0.000     18.07
H(0)          0.000e+00
   H2              0.000e+00   0.000e+00   -40.536   -40.536     0.000     28.61
O(0)          9.825e-12
   O2              4.913e-12   4.913e-12   -11.309   -11.309     0.000     30.40
Xylene        9.931e-10
   Xylene          9.931e-10   9.931e-10    -9.003    -9.003     0.000     (0)  

------------------------------Saturation indices-------------------------------

  Phase               SI** log IAP   log K(298 K,   1 atm)

  H2(g)           -37.43    -40.54   -3.10  H2
  H2O(g)           -1.50     -0.00    1.50  H2O
  O2(g)            -8.42    -11.31   -2.89  O2

**For a gas, SI = log10(fugacity). Fugacity = pressure * phi / 1 atm.
  For ideal gases, phi = 1.

Reaction step 48.

Using solution 1.	
Using kinetics 1.	

Kinetics 1.	

	Time step: 12000 seconds  (Incremented time: 576000 seconds)

	Rate name       Delta Moles Total Moles   Reactant        Coefficient

	S_degradation    -0.000e+00   8.113e-05   Xylene                    1
	Biomass          -0.000e+00   3.683e-04   C                         0

-----------------------------Solution composition------------------------------

	Elements           Molality       Moles

	Xylene            9.931e-10   9.931e-10

----------------------------Description of solution----------------------------

                                       pH  =   7.000      Charge balance
                                       pe  =  11.693      Adjusted to redox equilibrium
      Specific Conductance (µS/cm,  25°C)  = 0
                          Density (g/cm³)  =   0.99704
                               Volume (L)  =   1.00297
                        Activity of water  =   1.000
                 Ionic strength (mol/kgw)  =   1.006e-07
                       Mass of water (kg)  =   1.000e+00
                 Total alkalinity (eq/kg)  =   1.216e-09
                         Temperature (°C)  =  25.00
                  Electrical balance (eq)  =  -1.216e-09
 Percent error, 100*(Cat-|An|)/(Cat+|An|)  =  -0.60
                               Iterations  =   0
                                  Total H  = 1.110124e+02
                                  Total O  = 5.550622e+01

----------------------------Distribution of species----------------------------

                                               Log       Log       Log    mole V
   Species          Molality    Activity  Molality  Activity     Gamma   cm³/mol

   OH-             1.013e-07   1.012e-07    -6.995    -6.995    -0.000     -4.14
   H+              1.000e-07   1.000e-07    -7.000    -7.000    -0.000      0.00
   H2O             5.551e+01   1.000e+00     1.744    -0.000     0.000     18.07
H(0)          0.000e+00
   H2              0.000e+00   0.000e+00   -40.536   -40.536     0.000     28.61
O(0)          9.825e-12
   O2              4.913e-12   4.913e-12   -11.309   -11.309     0.000     30.40
Xylene        9.931e-10
   Xylene          9.931e-10   9.931e-10    -9.003    -9.003     0.000     (0)  

------------------------------Saturation indices-------------------------------

  Phase               SI** log IAP   log K(298 K,   1 atm)

  H2(g)           -37.43    -40.54   -3.10  H2
  H2O(g)           -1.50     -0.00    1.50  H2O
  O2(g)            -8.42    -11.31   -2.89  O2

**For a gas, SI = log10(fugacity). Fugacity = pressure * phi / 1 atm.
  For ideal gases, phi = 1.

Reaction step 49.

Using solution 1.	
Using kinetics 1.	

Kinetics 1.	

	Time step: 12000 seconds  (Incremented time: 588000 seconds)

	Rate name       Delta Moles Total Moles   Reactant        Coefficient

	S_degradation    -0.000e+00   8.113e-05   Xylene                    1
	Biomass          -0.000e+00   3.683e-04   C                         0

-----------------------------Solution composition------------------------------

	Elements           Molality       Moles

	Xylene            9.931e-10   9.931e-10

----------------------------Description of solution----------------------------

                                       pH  =   7.000      Charge balance
                                       pe  =  11.693      Adjusted to redox equilibrium
      Specific Conductance (µS/cm,  25°C)  = 0
                          Density (g/cm³)  =   0.99704
                               Volume (L)  =   1.00297
                        Activity of water  =   1.000
                 Ionic strength (mol/kgw)  =   1.006e-07
                       Mass of water (kg)  =   1.000e+00
                 Total alkalinity (eq/kg)  =   1.216e-09
                         Temperature (°C)  =  25.00
                  Electrical balance (eq)  =  -1.216e-09
 Percent error, 100*(Cat-|An|)/(Cat+|An|)  =  -0.60
                               Iterations  =   0
                                  Total H  = 1.110124e+02
                                  Total O  = 5.550622e+01

----------------------------Distribution of species----------------------------

                                               Log       Log       Log    mole V
   Species          Molality    Activity  Molality  Activity     Gamma   cm³/mol

   OH-             1.013e-07   1.012e-07    -6.995    -6.995    -0.000     -4.14
   H+              1.000e-07   1.000e-07    -7.000    -7.000    -0.000      0.00
   H2O             5.551e+01   1.000e+00     1.744    -0.000     0.000     18.07
H(0)          0.000e+00
   H2              0.000e+00   0.000e+00   -40.536   -40.536     0.000     28.61
O(0)          9.825e-12
   O2              4.913e-12   4.913e-12   -11.309   -11.309     0.000     30.40
Xylene        9.931e-10
   Xylene          9.931e-10   9.931e-10    -9.003    -9.003     0.000     (0)  

------------------------------Saturation indices-------------------------------

  Phase               SI** log IAP   log K(298 K,   1 atm)

  H2(g)           -37.43    -40.54   -3.10  H2
  H2O(g)           -1.50     -0.00    1.50  H2O
  O2(g)            -8.42    -11.31   -2.89  O2

**For a gas, SI = log10(fugacity). Fugacity = pressure * phi / 1 atm.
  For ideal gases, phi = 1.

Reaction step 50.

Using solution 1.	
Using kinetics 1.	

Kinetics 1.	

	Time step: 12000 seconds  (Incremented time: 600000 seconds)

	Rate name       Delta Moles Total Moles   Reactant        Coefficient

	S_degradation    -0.000e+00   8.113e-05   Xylene                    1
	Biomass          -0.000e+00   3.683e-04   C                         0

-----------------------------Solution composition------------------------------

	Elements           Molality       Moles

	Xylene            9.931e-10   9.931e-10

----------------------------Description of solution----------------------------

                                       pH  =   7.000      Charge balance
                                       pe  =  11.693      Adjusted to redox equilibrium
      Specific Conductance (µS/cm,  25°C)  = 0
                          Density (g/cm³)  =   0.99704
                               Volume (L)  =   1.00297
                        Activity of water  =   1.000
                 Ionic strength (mol/kgw)  =   1.006e-07
                       Mass of water (kg)  =   1.000e+00
                 Total alkalinity (eq/kg)  =   1.216e-09
                         Temperature (°C)  =  25.00
                  Electrical balance (eq)  =  -1.216e-09
 Percent error, 100*(Cat-|An|)/(Cat+|An|)  =  -0.60
                               Iterations  =   0
                                  Total H  = 1.110124e+02
                                  Total O  = 5.550622e+01

----------------------------Distribution of species----------------------------

                                               Log       Log       Log    mole V
   Species          Molality    Activity  Molality  Activity     Gamma   cm³/mol

   OH-             1.013e-07   1.012e-07    -6.995    -6.995    -0.000     -4.14
   H+              1.000e-07   1.000e-07    -7.000    -7.000    -0.000      0.00
   H2O             5.551e+01   1.000e+00     1.744    -0.000     0.000     18.07
H(0)          0.000e+00
   H2              0.000e+00   0.000e+00   -40.536   -40.536     0.000     28.61
O(0)          9.825e-12
   O2              4.913e-12   4.913e-12   -11.309   -11.309     0.000     30.40
Xylene        9.931e-10
   Xylene          9.931e-10   9.931e-10    -9.003    -9.003     0.000     (0)  

------------------------------Saturation indices-------------------------------

  Phase               SI** log IAP   log K(298 K,   1 atm)

  H2(g)           -37.43    -40.54   -3.10  H2
  H2O(g)           -1.50     -0.00    1.50  H2O
  O2(g)            -8.42    -11.31   -2.89  O2

**For a gas, SI = log10(fugacity). Fugacity = pressure * phi / 1 atm.
  For ideal gases, phi = 1.

------------------
End of simulation.
------------------

------------------------------------
Reading input data for simulation 2.
------------------------------------

-------------------------------
End of Run after 1.377 Seconds.
-------------------------------

