WARNING: Database file from DATABASE keyword is used; command line argument ignored.
   Input file: C:\Users\Eirik\Desktop\phreeqc-3.6.2-15100-x64\bin\4.pqi
  Output file: C:\Users\Eirik\Desktop\phreeqc-3.6.2-15100-x64\bin\4.pqi.out
Database file: C:\Users\Eirik\Desktop\phreeqc-3.6.2-15100-x64\database\phreeqc.dat

------------------
Reading data base.
------------------

	SOLUTION_MASTER_SPECIES
	SOLUTION_SPECIES
	PHASES
	EXCHANGE_MASTER_SPECIES
	EXCHANGE_SPECIES
	SURFACE_MASTER_SPECIES
	SURFACE_SPECIES
	RATES
	END
------------------------------------
Reading input data for simulation 1.
------------------------------------

	DATABASE C:\Users\Eirik\Desktop\phreeqc-3.6.2-15100-x64\database\phreeqc.dat
	SOLUTION_MASTER_SPECIES
	 Pce	Pce	0	Pce	165.8
	SOLUTION_SPECIES
	 Pce = Pce
			log_k 0
	RATES
	 S_degradation
	 start
	  1 k_max = parm(1)
	   2 k_half = parm(2)          # parms defined in KINETICS
	 10 S = tot("Pce")
	 20 if S < 1e-9 then goto 50                       # quit at low conc.
	 30 rate = - k_max * S /(k_half + S)
	 40 dS = rate * time
	 50 save dS
	 end
	SOLUTION 1
	 Pce 0.1*1/165.8
	KINETICS 1
	 S_degradation
	 formula Pce 1
	 m0 0
	 parms 0.000116 0.206                        # k_max in g phenol/L/s,  k_half in g/L
	 steps 10000 in 200                                # 40 days
	INCREMENTAL_REACTIONS true
	USER_GRAPH
	 -headings time phenol
	 -axis_titles "Time / days" "mg phenol/ L"
	 -start
	 10 graph_x total_time / 86400
	 20 graph_y tot("Pce") * 1e3
	 -end
	END
-------------------------------------------
Beginning of initial solution calculations.
-------------------------------------------

Initial solution 1.	

-----------------------------Solution composition------------------------------

	Elements           Molality       Moles

	Pce               1.000e-04   1.000e-04

----------------------------Description of solution----------------------------

                                       pH  =   7.000    
                                       pe  =   4.000    
      Specific Conductance (µS/cm,  25°C)  = 0
                          Density (g/cm³)  =   0.99706
                               Volume (L)  =   1.00297
                        Activity of water  =   1.000
                 Ionic strength (mol/kgw)  =   1.006e-07
                       Mass of water (kg)  =   1.000e+00
                 Total alkalinity (eq/kg)  =   1.216e-09
                         Temperature (°C)  =  25.00
                  Electrical balance (eq)  =  -1.216e-09
 Percent error, 100*(Cat-|An|)/(Cat+|An|)  =  -0.60
                               Iterations  =   2
                                  Total H  = 1.110124e+02
                                  Total O  = 5.550622e+01

----------------------------Distribution of species----------------------------

                                               Log       Log       Log    mole V
   Species          Molality    Activity  Molality  Activity     Gamma   cm³/mol

   OH-             1.013e-07   1.012e-07    -6.995    -6.995    -0.000     -4.14
   H+              1.000e-07   1.000e-07    -7.000    -7.000    -0.000      0.00
   H2O             5.551e+01   1.000e+00     1.744    -0.000     0.000     18.07
H(0)          1.416e-25
   H2              7.079e-26   7.079e-26   -25.150   -25.150     0.000     28.61
O(0)          0.000e+00
   O2              0.000e+00   0.000e+00   -42.080   -42.080     0.000     30.40
Pce           1.000e-04
   Pce             1.000e-04   1.000e-04    -4.000    -4.000     0.000     (0)  

------------------------------Saturation indices-------------------------------

  Phase               SI** log IAP   log K(298 K,   1 atm)

  H2(g)           -22.05    -25.15   -3.10  H2
  H2O(g)           -1.50     -0.00    1.50  H2O
  O2(g)           -39.19    -42.08   -2.89  O2

**For a gas, SI = log10(fugacity). Fugacity = pressure * phi / 1 atm.
  For ideal gases, phi = 1.

-----------------------------------------
Beginning of batch-reaction calculations.
-----------------------------------------

Reaction step 1.

Using solution 1.	
Using kinetics 1.	

Kinetics 1.	

	Time step: 50 seconds  (Incremented time: 50 seconds)

	Rate name       Delta Moles Total Moles   Reactant        Coefficient

	S_degradation     2.775e-06   2.775e-06   Pce                       1

-----------------------------Solution composition------------------------------

	Elements           Molality       Moles

	Pce               9.723e-05   9.723e-05

----------------------------Description of solution----------------------------

                                       pH  =   7.000      Charge balance
                                       pe  =  10.598      Adjusted to redox equilibrium
      Specific Conductance (µS/cm,  25°C)  = 0
                          Density (g/cm³)  =   0.99706
                               Volume (L)  =   1.00297
                        Activity of water  =   1.000
                 Ionic strength (mol/kgw)  =   1.006e-07
                       Mass of water (kg)  =   1.000e+00
                 Total alkalinity (eq/kg)  =   1.216e-09
                         Temperature (°C)  =  25.00
                  Electrical balance (eq)  =  -1.216e-09
 Percent error, 100*(Cat-|An|)/(Cat+|An|)  =  -0.60
                               Iterations  =  46
                                  Total H  = 1.110124e+02
                                  Total O  = 5.550622e+01

----------------------------Distribution of species----------------------------

                                               Log       Log       Log    mole V
   Species          Molality    Activity  Molality  Activity     Gamma   cm³/mol

   OH-             1.013e-07   1.012e-07    -6.995    -6.995    -0.000     -4.14
   H+              1.000e-07   1.000e-07    -7.000    -7.000    -0.000      0.00
   H2O             5.551e+01   1.000e+00     1.744    -0.000     0.000     18.07
H(0)          9.037e-39
   H2              4.518e-39   4.518e-39   -38.345   -38.345     0.000     28.61
O(0)          4.084e-16
   O2              2.042e-16   2.042e-16   -15.690   -15.690     0.000     30.40
Pce           9.723e-05
   Pce             9.723e-05   9.723e-05    -4.012    -4.012     0.000     (0)  

------------------------------Saturation indices-------------------------------

  Phase               SI** log IAP   log K(298 K,   1 atm)

  H2(g)           -35.24    -38.35   -3.10  H2
  H2O(g)           -1.50     -0.00    1.50  H2O
  O2(g)           -12.80    -15.69   -2.89  O2

**For a gas, SI = log10(fugacity). Fugacity = pressure * phi / 1 atm.
  For ideal gases, phi = 1.

Reaction step 2.

Using solution 1.	
Using kinetics 1.	

Kinetics 1.	

	Time step: 50 seconds  (Incremented time: 100 seconds)

	Rate name       Delta Moles Total Moles   Reactant        Coefficient

	S_degradation     2.698e-06   5.473e-06   Pce                       1

-----------------------------Solution composition------------------------------

	Elements           Molality       Moles

	Pce               9.453e-05   9.453e-05

----------------------------Description of solution----------------------------

                                       pH  =   7.000      Charge balance
                                       pe  =  11.680      Adjusted to redox equilibrium
      Specific Conductance (µS/cm,  25°C)  = 0
                          Density (g/cm³)  =   0.99706
                               Volume (L)  =   1.00297
                        Activity of water  =   1.000
                 Ionic strength (mol/kgw)  =   1.006e-07
                       Mass of water (kg)  =   1.000e+00
                 Total alkalinity (eq/kg)  =   1.216e-09
                         Temperature (°C)  =  25.00
                  Electrical balance (eq)  =  -1.216e-09
 Percent error, 100*(Cat-|An|)/(Cat+|An|)  =  -0.60
                               Iterations  =  18
                                  Total H  = 1.110124e+02
                                  Total O  = 5.550622e+01

----------------------------Distribution of species----------------------------

                                               Log       Log       Log    mole V
   Species          Molality    Activity  Molality  Activity     Gamma   cm³/mol

   OH-             1.013e-07   1.012e-07    -6.995    -6.995    -0.000     -4.14
   H+              1.000e-07   1.000e-07    -7.000    -7.000    -0.000      0.00
   H2O             5.551e+01   1.000e+00     1.744    -0.000     0.000     18.07
H(0)          0.000e+00
   H2              0.000e+00   0.000e+00   -40.511   -40.511     0.000     28.61
O(0)          8.763e-12
   O2              4.382e-12   4.382e-12   -11.358   -11.358     0.000     30.40
Pce           9.453e-05
   Pce             9.453e-05   9.453e-05    -4.024    -4.024     0.000     (0)  

------------------------------Saturation indices-------------------------------

  Phase               SI** log IAP   log K(298 K,   1 atm)

  H2(g)           -37.41    -40.51   -3.10  H2
  H2O(g)           -1.50     -0.00    1.50  H2O
  O2(g)            -8.47    -11.36   -2.89  O2

**For a gas, SI = log10(fugacity). Fugacity = pressure * phi / 1 atm.
  For ideal gases, phi = 1.

Reaction step 3.

Using solution 1.	
Using kinetics 1.	

Kinetics 1.	

	Time step: 50 seconds  (Incremented time: 150 seconds)

	Rate name       Delta Moles Total Moles   Reactant        Coefficient

	S_degradation     2.623e-06   8.096e-06   Pce                       1

-----------------------------Solution composition------------------------------

	Elements           Molality       Moles

	Pce               9.190e-05   9.190e-05

----------------------------Description of solution----------------------------

                                       pH  =   7.000      Charge balance
                                       pe  =  11.680      Adjusted to redox equilibrium
      Specific Conductance (µS/cm,  25°C)  = 0
                          Density (g/cm³)  =   0.99706
                               Volume (L)  =   1.00297
                        Activity of water  =   1.000
                 Ionic strength (mol/kgw)  =   1.006e-07
                       Mass of water (kg)  =   1.000e+00
                 Total alkalinity (eq/kg)  =   1.216e-09
                         Temperature (°C)  =  25.00
                  Electrical balance (eq)  =  -1.216e-09
 Percent error, 100*(Cat-|An|)/(Cat+|An|)  =  -0.60
                               Iterations  =  16
                                  Total H  = 1.110124e+02
                                  Total O  = 5.550622e+01

----------------------------Distribution of species----------------------------

                                               Log       Log       Log    mole V
   Species          Molality    Activity  Molality  Activity     Gamma   cm³/mol

   OH-             1.013e-07   1.012e-07    -6.995    -6.995    -0.000     -4.14
   H+              1.000e-07   1.000e-07    -7.000    -7.000    -0.000      0.00
   H2O             5.551e+01   1.000e+00     1.744    -0.000     0.000     18.07
H(0)          0.000e+00
   H2              0.000e+00   0.000e+00   -40.511   -40.511     0.000     28.61
O(0)          8.769e-12
   O2              4.384e-12   4.384e-12   -11.358   -11.358     0.000     30.40
Pce           9.190e-05
   Pce             9.190e-05   9.190e-05    -4.037    -4.037     0.000     (0)  

------------------------------Saturation indices-------------------------------

  Phase               SI** log IAP   log K(298 K,   1 atm)

  H2(g)           -37.41    -40.51   -3.10  H2
  H2O(g)           -1.50     -0.00    1.50  H2O
  O2(g)            -8.47    -11.36   -2.89  O2

**For a gas, SI = log10(fugacity). Fugacity = pressure * phi / 1 atm.
  For ideal gases, phi = 1.

Reaction step 4.

Using solution 1.	
Using kinetics 1.	

Kinetics 1.	

	Time step: 50 seconds  (Incremented time: 200 seconds)

	Rate name       Delta Moles Total Moles   Reactant        Coefficient

	S_degradation     2.550e-06   1.065e-05   Pce                       1

-----------------------------Solution composition------------------------------

	Elements           Molality       Moles

	Pce               8.935e-05   8.935e-05

----------------------------Description of solution----------------------------

                                       pH  =   7.000      Charge balance
                                       pe  =  11.680      Adjusted to redox equilibrium
      Specific Conductance (µS/cm,  25°C)  = 0
                          Density (g/cm³)  =   0.99706
                               Volume (L)  =   1.00297
                        Activity of water  =   1.000
                 Ionic strength (mol/kgw)  =   1.006e-07
                       Mass of water (kg)  =   1.000e+00
                 Total alkalinity (eq/kg)  =   1.216e-09
                         Temperature (°C)  =  25.00
                  Electrical balance (eq)  =  -1.216e-09
 Percent error, 100*(Cat-|An|)/(Cat+|An|)  =  -0.60
                               Iterations  =  16
                                  Total H  = 1.110124e+02
                                  Total O  = 5.550622e+01

----------------------------Distribution of species----------------------------

                                               Log       Log       Log    mole V
   Species          Molality    Activity  Molality  Activity     Gamma   cm³/mol

   OH-             1.013e-07   1.012e-07    -6.995    -6.995    -0.000     -4.14
   H+              1.000e-07   1.000e-07    -7.000    -7.000    -0.000      0.00
   H2O             5.551e+01   1.000e+00     1.744    -0.000     0.000     18.07
H(0)          0.000e+00
   H2              0.000e+00   0.000e+00   -40.511   -40.511     0.000     28.61
O(0)          8.761e-12
   O2              4.381e-12   4.381e-12   -11.358   -11.358     0.000     30.40
Pce           8.935e-05
   Pce             8.935e-05   8.935e-05    -4.049    -4.049     0.000     (0)  

------------------------------Saturation indices-------------------------------

  Phase               SI** log IAP   log K(298 K,   1 atm)

  H2(g)           -37.41    -40.51   -3.10  H2
  H2O(g)           -1.50     -0.00    1.50  H2O
  O2(g)            -8.47    -11.36   -2.89  O2

**For a gas, SI = log10(fugacity). Fugacity = pressure * phi / 1 atm.
  For ideal gases, phi = 1.

Reaction step 5.

Using solution 1.	
Using kinetics 1.	

Kinetics 1.	

	Time step: 50 seconds  (Incremented time: 250 seconds)

	Rate name       Delta Moles Total Moles   Reactant        Coefficient

	S_degradation     2.480e-06   1.313e-05   Pce                       1

-----------------------------Solution composition------------------------------

	Elements           Molality       Moles

	Pce               8.687e-05   8.687e-05

----------------------------Description of solution----------------------------

                                       pH  =   7.000      Charge balance
                                       pe  =  11.680      Adjusted to redox equilibrium
      Specific Conductance (µS/cm,  25°C)  = 0
                          Density (g/cm³)  =   0.99706
                               Volume (L)  =   1.00297
                        Activity of water  =   1.000
                 Ionic strength (mol/kgw)  =   1.006e-07
                       Mass of water (kg)  =   1.000e+00
                 Total alkalinity (eq/kg)  =   1.216e-09
                         Temperature (°C)  =  25.00
                  Electrical balance (eq)  =  -1.216e-09
 Percent error, 100*(Cat-|An|)/(Cat+|An|)  =  -0.60
                               Iterations  =  16
                                  Total H  = 1.110124e+02
                                  Total O  = 5.550622e+01

----------------------------Distribution of species----------------------------

                                               Log       Log       Log    mole V
   Species          Molality    Activity  Molality  Activity     Gamma   cm³/mol

   OH-             1.013e-07   1.012e-07    -6.995    -6.995    -0.000     -4.14
   H+              1.000e-07   1.000e-07    -7.000    -7.000    -0.000      0.00
   H2O             5.551e+01   1.000e+00     1.744    -0.000     0.000     18.07
H(0)          0.000e+00
   H2              0.000e+00   0.000e+00   -40.511   -40.511     0.000     28.61
O(0)          8.754e-12
   O2              4.377e-12   4.377e-12   -11.359   -11.359     0.000     30.40
Pce           8.687e-05
   Pce             8.687e-05   8.687e-05    -4.061    -4.061     0.000     (0)  

------------------------------Saturation indices-------------------------------

  Phase               SI** log IAP   log K(298 K,   1 atm)

  H2(g)           -37.41    -40.51   -3.10  H2
  H2O(g)           -1.50     -0.00    1.50  H2O
  O2(g)            -8.47    -11.36   -2.89  O2

**For a gas, SI = log10(fugacity). Fugacity = pressure * phi / 1 atm.
  For ideal gases, phi = 1.

Reaction step 6.

Using solution 1.	
Using kinetics 1.	

Kinetics 1.	

	Time step: 50 seconds  (Incremented time: 300 seconds)

	Rate name       Delta Moles Total Moles   Reactant        Coefficient

	S_degradation     2.411e-06   1.554e-05   Pce                       1

-----------------------------Solution composition------------------------------

	Elements           Molality       Moles

	Pce               8.446e-05   8.446e-05

----------------------------Description of solution----------------------------

                                       pH  =   7.000      Charge balance
                                       pe  =  11.680      Adjusted to redox equilibrium
      Specific Conductance (µS/cm,  25°C)  = 0
                          Density (g/cm³)  =   0.99706
                               Volume (L)  =   1.00297
                        Activity of water  =   1.000
                 Ionic strength (mol/kgw)  =   1.006e-07
                       Mass of water (kg)  =   1.000e+00
                 Total alkalinity (eq/kg)  =   1.216e-09
                         Temperature (°C)  =  25.00
                  Electrical balance (eq)  =  -1.216e-09
 Percent error, 100*(Cat-|An|)/(Cat+|An|)  =  -0.60
                               Iterations  =  16
                                  Total H  = 1.110124e+02
                                  Total O  = 5.550622e+01

----------------------------Distribution of species----------------------------

                                               Log       Log       Log    mole V
   Species          Molality    Activity  Molality  Activity     Gamma   cm³/mol

   OH-             1.013e-07   1.012e-07    -6.995    -6.995    -0.000     -4.14
   H+              1.000e-07   1.000e-07    -7.000    -7.000    -0.000      0.00
   H2O             5.551e+01   1.000e+00     1.744    -0.000     0.000     18.07
H(0)          0.000e+00
   H2              0.000e+00   0.000e+00   -40.511   -40.511     0.000     28.61
O(0)          8.754e-12
   O2              4.377e-12   4.377e-12   -11.359   -11.359     0.000     30.40
Pce           8.446e-05
   Pce             8.446e-05   8.446e-05    -4.073    -4.073     0.000     (0)  

------------------------------Saturation indices-------------------------------

  Phase               SI** log IAP   log K(298 K,   1 atm)

  H2(g)           -37.41    -40.51   -3.10  H2
  H2O(g)           -1.50     -0.00    1.50  H2O
  O2(g)            -8.47    -11.36   -2.89  O2

**For a gas, SI = log10(fugacity). Fugacity = pressure * phi / 1 atm.
  For ideal gases, phi = 1.

Reaction step 7.

Using solution 1.	
Using kinetics 1.	

Kinetics 1.	

	Time step: 50 seconds  (Incremented time: 350 seconds)

	Rate name       Delta Moles Total Moles   Reactant        Coefficient

	S_degradation     2.344e-06   1.788e-05   Pce                       1

-----------------------------Solution composition------------------------------

	Elements           Molality       Moles

	Pce               8.212e-05   8.212e-05

----------------------------Description of solution----------------------------

                                       pH  =   7.000      Charge balance
                                       pe  =  11.680      Adjusted to redox equilibrium
      Specific Conductance (µS/cm,  25°C)  = 0
                          Density (g/cm³)  =   0.99706
                               Volume (L)  =   1.00297
                        Activity of water  =   1.000
                 Ionic strength (mol/kgw)  =   1.006e-07
                       Mass of water (kg)  =   1.000e+00
                 Total alkalinity (eq/kg)  =   1.216e-09
                         Temperature (°C)  =  25.00
                  Electrical balance (eq)  =  -1.216e-09
 Percent error, 100*(Cat-|An|)/(Cat+|An|)  =  -0.60
                               Iterations  =  16
                                  Total H  = 1.110124e+02
                                  Total O  = 5.550622e+01

----------------------------Distribution of species----------------------------

                                               Log       Log       Log    mole V
   Species          Molality    Activity  Molality  Activity     Gamma   cm³/mol

   OH-             1.013e-07   1.012e-07    -6.995    -6.995    -0.000     -4.14
   H+              1.000e-07   1.000e-07    -7.000    -7.000    -0.000      0.00
   H2O             5.551e+01   1.000e+00     1.744    -0.000     0.000     18.07
H(0)          0.000e+00
   H2              0.000e+00   0.000e+00   -40.511   -40.511     0.000     28.61
O(0)          8.754e-12
   O2              4.377e-12   4.377e-12   -11.359   -11.359     0.000     30.40
Pce           8.212e-05
   Pce             8.212e-05   8.212e-05    -4.086    -4.086     0.000     (0)  

------------------------------Saturation indices-------------------------------

  Phase               SI** log IAP   log K(298 K,   1 atm)

  H2(g)           -37.41    -40.51   -3.10  H2
  H2O(g)           -1.50     -0.00    1.50  H2O
  O2(g)            -8.47    -11.36   -2.89  O2

**For a gas, SI = log10(fugacity). Fugacity = pressure * phi / 1 atm.
  For ideal gases, phi = 1.

Reaction step 8.

Using solution 1.	
Using kinetics 1.	

Kinetics 1.	

	Time step: 50 seconds  (Incremented time: 400 seconds)

	Rate name       Delta Moles Total Moles   Reactant        Coefficient

	S_degradation     2.279e-06   2.016e-05   Pce                       1

-----------------------------Solution composition------------------------------

	Elements           Molality       Moles

	Pce               7.984e-05   7.984e-05

----------------------------Description of solution----------------------------

                                       pH  =   7.000      Charge balance
                                       pe  =  11.680      Adjusted to redox equilibrium
      Specific Conductance (µS/cm,  25°C)  = 0
                          Density (g/cm³)  =   0.99706
                               Volume (L)  =   1.00297
                        Activity of water  =   1.000
                 Ionic strength (mol/kgw)  =   1.006e-07
                       Mass of water (kg)  =   1.000e+00
                 Total alkalinity (eq/kg)  =   1.216e-09
                         Temperature (°C)  =  25.00
                  Electrical balance (eq)  =  -1.216e-09
 Percent error, 100*(Cat-|An|)/(Cat+|An|)  =  -0.60
                               Iterations  =  16
                                  Total H  = 1.110124e+02
                                  Total O  = 5.550622e+01

----------------------------Distribution of species----------------------------

                                               Log       Log       Log    mole V
   Species          Molality    Activity  Molality  Activity     Gamma   cm³/mol

   OH-             1.013e-07   1.012e-07    -6.995    -6.995    -0.000     -4.14
   H+              1.000e-07   1.000e-07    -7.000    -7.000    -0.000      0.00
   H2O             5.551e+01   1.000e+00     1.744    -0.000     0.000     18.07
H(0)          0.000e+00
   H2              0.000e+00   0.000e+00   -40.511   -40.511     0.000     28.61
O(0)          8.754e-12
   O2              4.377e-12   4.377e-12   -11.359   -11.359     0.000     30.40
Pce           7.984e-05
   Pce             7.984e-05   7.984e-05    -4.098    -4.098     0.000     (0)  

------------------------------Saturation indices-------------------------------

  Phase               SI** log IAP   log K(298 K,   1 atm)

  H2(g)           -37.41    -40.51   -3.10  H2
  H2O(g)           -1.50     -0.00    1.50  H2O
  O2(g)            -8.47    -11.36   -2.89  O2

**For a gas, SI = log10(fugacity). Fugacity = pressure * phi / 1 atm.
  For ideal gases, phi = 1.

Reaction step 9.

Using solution 1.	
Using kinetics 1.	

Kinetics 1.	

	Time step: 50 seconds  (Incremented time: 450 seconds)

	Rate name       Delta Moles Total Moles   Reactant        Coefficient

	S_degradation     2.216e-06   2.238e-05   Pce                       1

-----------------------------Solution composition------------------------------

	Elements           Molality       Moles

	Pce               7.762e-05   7.762e-05

----------------------------Description of solution----------------------------

                                       pH  =   7.000      Charge balance
                                       pe  =  11.680      Adjusted to redox equilibrium
      Specific Conductance (µS/cm,  25°C)  = 0
                          Density (g/cm³)  =   0.99706
                               Volume (L)  =   1.00297
                        Activity of water  =   1.000
                 Ionic strength (mol/kgw)  =   1.006e-07
                       Mass of water (kg)  =   1.000e+00
                 Total alkalinity (eq/kg)  =   1.216e-09
                         Temperature (°C)  =  25.00
                  Electrical balance (eq)  =  -1.216e-09
 Percent error, 100*(Cat-|An|)/(Cat+|An|)  =  -0.60
                               Iterations  =  16
                                  Total H  = 1.110124e+02
                                  Total O  = 5.550622e+01

----------------------------Distribution of species----------------------------

                                               Log       Log       Log    mole V
   Species          Molality    Activity  Molality  Activity     Gamma   cm³/mol

   OH-             1.013e-07   1.012e-07    -6.995    -6.995    -0.000     -4.14
   H+              1.000e-07   1.000e-07    -7.000    -7.000    -0.000      0.00
   H2O             5.551e+01   1.000e+00     1.744    -0.000     0.000     18.07
H(0)          0.000e+00
   H2              0.000e+00   0.000e+00   -40.511   -40.511     0.000     28.61
O(0)          8.761e-12
   O2              4.381e-12   4.381e-12   -11.358   -11.358     0.000     30.40
Pce           7.762e-05
   Pce             7.762e-05   7.762e-05    -4.110    -4.110     0.000     (0)  

------------------------------Saturation indices-------------------------------

  Phase               SI** log IAP   log K(298 K,   1 atm)

  H2(g)           -37.41    -40.51   -3.10  H2
  H2O(g)           -1.50     -0.00    1.50  H2O
  O2(g)            -8.47    -11.36   -2.89  O2

**For a gas, SI = log10(fugacity). Fugacity = pressure * phi / 1 atm.
  For ideal gases, phi = 1.

Reaction step 10.

Using solution 1.	
Using kinetics 1.	

Kinetics 1.	

	Time step: 50 seconds  (Incremented time: 500 seconds)

	Rate name       Delta Moles Total Moles   Reactant        Coefficient

	S_degradation     2.154e-06   2.453e-05   Pce                       1

-----------------------------Solution composition------------------------------

	Elements           Molality       Moles

	Pce               7.547e-05   7.547e-05

----------------------------Description of solution----------------------------

                                       pH  =   7.000      Charge balance
                                       pe  =  11.680      Adjusted to redox equilibrium
      Specific Conductance (µS/cm,  25°C)  = 0
                          Density (g/cm³)  =   0.99706
                               Volume (L)  =   1.00297
                        Activity of water  =   1.000
                 Ionic strength (mol/kgw)  =   1.006e-07
                       Mass of water (kg)  =   1.000e+00
                 Total alkalinity (eq/kg)  =   1.216e-09
                         Temperature (°C)  =  25.00
                  Electrical balance (eq)  =  -1.216e-09
 Percent error, 100*(Cat-|An|)/(Cat+|An|)  =  -0.60
                               Iterations  =  16
                                  Total H  = 1.110124e+02
                                  Total O  = 5.550622e+01

----------------------------Distribution of species----------------------------

                                               Log       Log       Log    mole V
   Species          Molality    Activity  Molality  Activity     Gamma   cm³/mol

   OH-             1.013e-07   1.012e-07    -6.995    -6.995    -0.000     -4.14
   H+              1.000e-07   1.000e-07    -7.000    -7.000    -0.000      0.00
   H2O             5.551e+01   1.000e+00     1.744    -0.000     0.000     18.07
H(0)          0.000e+00
   H2              0.000e+00   0.000e+00   -40.511   -40.511     0.000     28.61
O(0)          8.769e-12
   O2              4.384e-12   4.384e-12   -11.358   -11.358     0.000     30.40
Pce           7.547e-05
   Pce             7.547e-05   7.547e-05    -4.122    -4.122     0.000     (0)  

------------------------------Saturation indices-------------------------------

  Phase               SI** log IAP   log K(298 K,   1 atm)

  H2(g)           -37.41    -40.51   -3.10  H2
  H2O(g)           -1.50     -0.00    1.50  H2O
  O2(g)            -8.47    -11.36   -2.89  O2

**For a gas, SI = log10(fugacity). Fugacity = pressure * phi / 1 atm.
  For ideal gases, phi = 1.

Reaction step 11.

Using solution 1.	
Using kinetics 1.	

Kinetics 1.	

	Time step: 50 seconds  (Incremented time: 550 seconds)

	Rate name       Delta Moles Total Moles   Reactant        Coefficient

	S_degradation     2.095e-06   2.662e-05   Pce                       1

-----------------------------Solution composition------------------------------

	Elements           Molality       Moles

	Pce               7.338e-05   7.338e-05

----------------------------Description of solution----------------------------

                                       pH  =   7.000      Charge balance
                                       pe  =  11.680      Adjusted to redox equilibrium
      Specific Conductance (µS/cm,  25°C)  = 0
                          Density (g/cm³)  =   0.99706
                               Volume (L)  =   1.00297
                        Activity of water  =   1.000
                 Ionic strength (mol/kgw)  =   1.006e-07
                       Mass of water (kg)  =   1.000e+00
                 Total alkalinity (eq/kg)  =   1.216e-09
                         Temperature (°C)  =  25.00
                  Electrical balance (eq)  =  -1.216e-09
 Percent error, 100*(Cat-|An|)/(Cat+|An|)  =  -0.60
                               Iterations  =  16
                                  Total H  = 1.110124e+02
                                  Total O  = 5.550622e+01

----------------------------Distribution of species----------------------------

                                               Log       Log       Log    mole V
   Species          Molality    Activity  Molality  Activity     Gamma   cm³/mol

   OH-             1.013e-07   1.012e-07    -6.995    -6.995    -0.000     -4.14
   H+              1.000e-07   1.000e-07    -7.000    -7.000    -0.000      0.00
   H2O             5.551e+01   1.000e+00     1.744    -0.000     0.000     18.07
H(0)          0.000e+00
   H2              0.000e+00   0.000e+00   -40.511   -40.511     0.000     28.61
O(0)          8.761e-12
   O2              4.381e-12   4.381e-12   -11.358   -11.358     0.000     30.40
Pce           7.338e-05
   Pce             7.338e-05   7.338e-05    -4.134    -4.134     0.000     (0)  

------------------------------Saturation indices-------------------------------

  Phase               SI** log IAP   log K(298 K,   1 atm)

  H2(g)           -37.41    -40.51   -3.10  H2
  H2O(g)           -1.50     -0.00    1.50  H2O
  O2(g)            -8.47    -11.36   -2.89  O2

**For a gas, SI = log10(fugacity). Fugacity = pressure * phi / 1 atm.
  For ideal gases, phi = 1.

Reaction step 12.

Using solution 1.	
Using kinetics 1.	

Kinetics 1.	

	Time step: 50 seconds  (Incremented time: 600 seconds)

	Rate name       Delta Moles Total Moles   Reactant        Coefficient

	S_degradation     2.036e-06   2.866e-05   Pce                       1

-----------------------------Solution composition------------------------------

	Elements           Molality       Moles

	Pce               7.134e-05   7.134e-05

----------------------------Description of solution----------------------------

                                       pH  =   7.000      Charge balance
                                       pe  =  11.680      Adjusted to redox equilibrium
      Specific Conductance (µS/cm,  25°C)  = 0
                          Density (g/cm³)  =   0.99705
                               Volume (L)  =   1.00297
                        Activity of water  =   1.000
                 Ionic strength (mol/kgw)  =   1.006e-07
                       Mass of water (kg)  =   1.000e+00
                 Total alkalinity (eq/kg)  =   1.216e-09
                         Temperature (°C)  =  25.00
                  Electrical balance (eq)  =  -1.216e-09
 Percent error, 100*(Cat-|An|)/(Cat+|An|)  =  -0.60
                               Iterations  =  16
                                  Total H  = 1.110124e+02
                                  Total O  = 5.550622e+01

----------------------------Distribution of species----------------------------

                                               Log       Log       Log    mole V
   Species          Molality    Activity  Molality  Activity     Gamma   cm³/mol

   OH-             1.013e-07   1.012e-07    -6.995    -6.995    -0.000     -4.14
   H+              1.000e-07   1.000e-07    -7.000    -7.000    -0.000      0.00
   H2O             5.551e+01   1.000e+00     1.744    -0.000     0.000     18.07
H(0)          0.000e+00
   H2              0.000e+00   0.000e+00   -40.511   -40.511     0.000     28.61
O(0)          8.754e-12
   O2              4.377e-12   4.377e-12   -11.359   -11.359     0.000     30.40
Pce           7.134e-05
   Pce             7.134e-05   7.134e-05    -4.147    -4.147     0.000     (0)  

------------------------------Saturation indices-------------------------------

  Phase               SI** log IAP   log K(298 K,   1 atm)

  H2(g)           -37.41    -40.51   -3.10  H2
  H2O(g)           -1.50     -0.00    1.50  H2O
  O2(g)            -8.47    -11.36   -2.89  O2

**For a gas, SI = log10(fugacity). Fugacity = pressure * phi / 1 atm.
  For ideal gases, phi = 1.

Reaction step 13.

Using solution 1.	
Using kinetics 1.	

Kinetics 1.	

	Time step: 50 seconds  (Incremented time: 650 seconds)

	Rate name       Delta Moles Total Moles   Reactant        Coefficient

	S_degradation     1.980e-06   3.064e-05   Pce                       1

-----------------------------Solution composition------------------------------

	Elements           Molality       Moles

	Pce               6.936e-05   6.936e-05

----------------------------Description of solution----------------------------

                                       pH  =   7.000      Charge balance
                                       pe  =  11.680      Adjusted to redox equilibrium
      Specific Conductance (µS/cm,  25°C)  = 0
                          Density (g/cm³)  =   0.99705
                               Volume (L)  =   1.00297
                        Activity of water  =   1.000
                 Ionic strength (mol/kgw)  =   1.006e-07
                       Mass of water (kg)  =   1.000e+00
                 Total alkalinity (eq/kg)  =   1.216e-09
                         Temperature (°C)  =  25.00
                  Electrical balance (eq)  =  -1.216e-09
 Percent error, 100*(Cat-|An|)/(Cat+|An|)  =  -0.60
                               Iterations  =  16
                                  Total H  = 1.110124e+02
                                  Total O  = 5.550622e+01

----------------------------Distribution of species----------------------------

                                               Log       Log       Log    mole V
   Species          Molality    Activity  Molality  Activity     Gamma   cm³/mol

   OH-             1.013e-07   1.012e-07    -6.995    -6.995    -0.000     -4.14
   H+              1.000e-07   1.000e-07    -7.000    -7.000    -0.000      0.00
   H2O             5.551e+01   1.000e+00     1.744    -0.000     0.000     18.07
H(0)          0.000e+00
   H2              0.000e+00   0.000e+00   -40.511   -40.511     0.000     28.61
O(0)          8.754e-12
   O2              4.377e-12   4.377e-12   -11.359   -11.359     0.000     30.40
Pce           6.936e-05
   Pce             6.936e-05   6.936e-05    -4.159    -4.159     0.000     (0)  

------------------------------Saturation indices-------------------------------

  Phase               SI** log IAP   log K(298 K,   1 atm)

  H2(g)           -37.41    -40.51   -3.10  H2
  H2O(g)           -1.50     -0.00    1.50  H2O
  O2(g)            -8.47    -11.36   -2.89  O2

**For a gas, SI = log10(fugacity). Fugacity = pressure * phi / 1 atm.
  For ideal gases, phi = 1.

Reaction step 14.

Using solution 1.	
Using kinetics 1.	

Kinetics 1.	

	Time step: 50 seconds  (Incremented time: 700 seconds)

	Rate name       Delta Moles Total Moles   Reactant        Coefficient

	S_degradation     1.925e-06   3.257e-05   Pce                       1

-----------------------------Solution composition------------------------------

	Elements           Molality       Moles

	Pce               6.743e-05   6.743e-05

----------------------------Description of solution----------------------------

                                       pH  =   7.000      Charge balance
                                       pe  =  11.680      Adjusted to redox equilibrium
      Specific Conductance (µS/cm,  25°C)  = 0
                          Density (g/cm³)  =   0.99705
                               Volume (L)  =   1.00297
                        Activity of water  =   1.000
                 Ionic strength (mol/kgw)  =   1.006e-07
                       Mass of water (kg)  =   1.000e+00
                 Total alkalinity (eq/kg)  =   1.216e-09
                         Temperature (°C)  =  25.00
                  Electrical balance (eq)  =  -1.216e-09
 Percent error, 100*(Cat-|An|)/(Cat+|An|)  =  -0.60
                               Iterations  =  16
                                  Total H  = 1.110124e+02
                                  Total O  = 5.550622e+01

----------------------------Distribution of species----------------------------

                                               Log       Log       Log    mole V
   Species          Molality    Activity  Molality  Activity     Gamma   cm³/mol

   OH-             1.013e-07   1.012e-07    -6.995    -6.995    -0.000     -4.14
   H+              1.000e-07   1.000e-07    -7.000    -7.000    -0.000      0.00
   H2O             5.551e+01   1.000e+00     1.744    -0.000     0.000     18.07
H(0)          0.000e+00
   H2              0.000e+00   0.000e+00   -40.511   -40.511     0.000     28.61
O(0)          8.754e-12
   O2              4.377e-12   4.377e-12   -11.359   -11.359     0.000     30.40
Pce           6.743e-05
   Pce             6.743e-05   6.743e-05    -4.171    -4.171     0.000     (0)  

------------------------------Saturation indices-------------------------------

  Phase               SI** log IAP   log K(298 K,   1 atm)

  H2(g)           -37.41    -40.51   -3.10  H2
  H2O(g)           -1.50     -0.00    1.50  H2O
  O2(g)            -8.47    -11.36   -2.89  O2

**For a gas, SI = log10(fugacity). Fugacity = pressure * phi / 1 atm.
  For ideal gases, phi = 1.

Reaction step 15.

Using solution 1.	
Using kinetics 1.	

Kinetics 1.	

	Time step: 50 seconds  (Incremented time: 750 seconds)

	Rate name       Delta Moles Total Moles   Reactant        Coefficient

	S_degradation     1.872e-06   3.444e-05   Pce                       1

-----------------------------Solution composition------------------------------

	Elements           Molality       Moles

	Pce               6.556e-05   6.556e-05

----------------------------Description of solution----------------------------

                                       pH  =   7.000      Charge balance
                                       pe  =  11.680      Adjusted to redox equilibrium
      Specific Conductance (µS/cm,  25°C)  = 0
                          Density (g/cm³)  =   0.99705
                               Volume (L)  =   1.00297
                        Activity of water  =   1.000
                 Ionic strength (mol/kgw)  =   1.006e-07
                       Mass of water (kg)  =   1.000e+00
                 Total alkalinity (eq/kg)  =   1.216e-09
                         Temperature (°C)  =  25.00
                  Electrical balance (eq)  =  -1.216e-09
 Percent error, 100*(Cat-|An|)/(Cat+|An|)  =  -0.60
                               Iterations  =  16
                                  Total H  = 1.110124e+02
                                  Total O  = 5.550622e+01

----------------------------Distribution of species----------------------------

                                               Log       Log       Log    mole V
   Species          Molality    Activity  Molality  Activity     Gamma   cm³/mol

   OH-             1.013e-07   1.012e-07    -6.995    -6.995    -0.000     -4.14
   H+              1.000e-07   1.000e-07    -7.000    -7.000    -0.000      0.00
   H2O             5.551e+01   1.000e+00     1.744    -0.000     0.000     18.07
H(0)          0.000e+00
   H2              0.000e+00   0.000e+00   -40.511   -40.511     0.000     28.61
O(0)          8.754e-12
   O2              4.377e-12   4.377e-12   -11.359   -11.359     0.000     30.40
Pce           6.556e-05
   Pce             6.556e-05   6.556e-05    -4.183    -4.183     0.000     (0)  

------------------------------Saturation indices-------------------------------

  Phase               SI** log IAP   log K(298 K,   1 atm)

  H2(g)           -37.41    -40.51   -3.10  H2
  H2O(g)           -1.50     -0.00    1.50  H2O
  O2(g)            -8.47    -11.36   -2.89  O2

**For a gas, SI = log10(fugacity). Fugacity = pressure * phi / 1 atm.
  For ideal gases, phi = 1.

Reaction step 16.

Using solution 1.	
Using kinetics 1.	

Kinetics 1.	

	Time step: 50 seconds  (Incremented time: 800 seconds)

	Rate name       Delta Moles Total Moles   Reactant        Coefficient

	S_degradation     1.820e-06   3.626e-05   Pce                       1

-----------------------------Solution composition------------------------------

	Elements           Molality       Moles

	Pce               6.374e-05   6.374e-05

----------------------------Description of solution----------------------------

                                       pH  =   7.000      Charge balance
                                       pe  =  11.680      Adjusted to redox equilibrium
      Specific Conductance (µS/cm,  25°C)  = 0
                          Density (g/cm³)  =   0.99705
                               Volume (L)  =   1.00297
                        Activity of water  =   1.000
                 Ionic strength (mol/kgw)  =   1.006e-07
                       Mass of water (kg)  =   1.000e+00
                 Total alkalinity (eq/kg)  =   1.216e-09
                         Temperature (°C)  =  25.00
                  Electrical balance (eq)  =  -1.216e-09
 Percent error, 100*(Cat-|An|)/(Cat+|An|)  =  -0.60
                               Iterations  =  16
                                  Total H  = 1.110124e+02
                                  Total O  = 5.550622e+01

----------------------------Distribution of species----------------------------

                                               Log       Log       Log    mole V
   Species          Molality    Activity  Molality  Activity     Gamma   cm³/mol

   OH-             1.013e-07   1.012e-07    -6.995    -6.995    -0.000     -4.14
   H+              1.000e-07   1.000e-07    -7.000    -7.000    -0.000      0.00
   H2O             5.551e+01   1.000e+00     1.744    -0.000     0.000     18.07
H(0)          0.000e+00
   H2              0.000e+00   0.000e+00   -40.511   -40.511     0.000     28.61
O(0)          8.754e-12
   O2              4.377e-12   4.377e-12   -11.359   -11.359     0.000     30.40
Pce           6.374e-05
   Pce             6.374e-05   6.374e-05    -4.196    -4.196     0.000     (0)  

------------------------------Saturation indices-------------------------------

  Phase               SI** log IAP   log K(298 K,   1 atm)

  H2(g)           -37.41    -40.51   -3.10  H2
  H2O(g)           -1.50     -0.00    1.50  H2O
  O2(g)            -8.47    -11.36   -2.89  O2

**For a gas, SI = log10(fugacity). Fugacity = pressure * phi / 1 atm.
  For ideal gases, phi = 1.

Reaction step 17.

Using solution 1.	
Using kinetics 1.	

Kinetics 1.	

	Time step: 50 seconds  (Incremented time: 850 seconds)

	Rate name       Delta Moles Total Moles   Reactant        Coefficient

	S_degradation     1.769e-06   3.803e-05   Pce                       1

-----------------------------Solution composition------------------------------

	Elements           Molality       Moles

	Pce               6.197e-05   6.197e-05

----------------------------Description of solution----------------------------

                                       pH  =   7.000      Charge balance
                                       pe  =  11.680      Adjusted to redox equilibrium
      Specific Conductance (µS/cm,  25°C)  = 0
                          Density (g/cm³)  =   0.99705
                               Volume (L)  =   1.00297
                        Activity of water  =   1.000
                 Ionic strength (mol/kgw)  =   1.006e-07
                       Mass of water (kg)  =   1.000e+00
                 Total alkalinity (eq/kg)  =   1.216e-09
                         Temperature (°C)  =  25.00
                  Electrical balance (eq)  =  -1.216e-09
 Percent error, 100*(Cat-|An|)/(Cat+|An|)  =  -0.60
                               Iterations  =  16
                                  Total H  = 1.110124e+02
                                  Total O  = 5.550622e+01

----------------------------Distribution of species----------------------------

                                               Log       Log       Log    mole V
   Species          Molality    Activity  Molality  Activity     Gamma   cm³/mol

   OH-             1.013e-07   1.012e-07    -6.995    -6.995    -0.000     -4.14
   H+              1.000e-07   1.000e-07    -7.000    -7.000    -0.000      0.00
   H2O             5.551e+01   1.000e+00     1.744    -0.000     0.000     18.07
H(0)          0.000e+00
   H2              0.000e+00   0.000e+00   -40.511   -40.511     0.000     28.61
O(0)          8.761e-12
   O2              4.381e-12   4.381e-12   -11.358   -11.358     0.000     30.40
Pce           6.197e-05
   Pce             6.197e-05   6.197e-05    -4.208    -4.208     0.000     (0)  

------------------------------Saturation indices-------------------------------

  Phase               SI** log IAP   log K(298 K,   1 atm)

  H2(g)           -37.41    -40.51   -3.10  H2
  H2O(g)           -1.50     -0.00    1.50  H2O
  O2(g)            -8.47    -11.36   -2.89  O2

**For a gas, SI = log10(fugacity). Fugacity = pressure * phi / 1 atm.
  For ideal gases, phi = 1.

Reaction step 18.

Using solution 1.	
Using kinetics 1.	

Kinetics 1.	

	Time step: 50 seconds  (Incremented time: 900 seconds)

	Rate name       Delta Moles Total Moles   Reactant        Coefficient

	S_degradation     1.720e-06   3.975e-05   Pce                       1

-----------------------------Solution composition------------------------------

	Elements           Molality       Moles

	Pce               6.025e-05   6.025e-05

----------------------------Description of solution----------------------------

                                       pH  =   7.000      Charge balance
                                       pe  =  11.680      Adjusted to redox equilibrium
      Specific Conductance (µS/cm,  25°C)  = 0
                          Density (g/cm³)  =   0.99705
                               Volume (L)  =   1.00297
                        Activity of water  =   1.000
                 Ionic strength (mol/kgw)  =   1.006e-07
                       Mass of water (kg)  =   1.000e+00
                 Total alkalinity (eq/kg)  =   1.216e-09
                         Temperature (°C)  =  25.00
                  Electrical balance (eq)  =  -1.216e-09
 Percent error, 100*(Cat-|An|)/(Cat+|An|)  =  -0.60
                               Iterations  =  16
                                  Total H  = 1.110124e+02
                                  Total O  = 5.550622e+01

----------------------------Distribution of species----------------------------

                                               Log       Log       Log    mole V
   Species          Molality    Activity  Molality  Activity     Gamma   cm³/mol

   OH-             1.013e-07   1.012e-07    -6.995    -6.995    -0.000     -4.14
   H+              1.000e-07   1.000e-07    -7.000    -7.000    -0.000      0.00
   H2O             5.551e+01   1.000e+00     1.744    -0.000     0.000     18.07
H(0)          0.000e+00
   H2              0.000e+00   0.000e+00   -40.511   -40.511     0.000     28.61
O(0)          8.769e-12
   O2              4.384e-12   4.384e-12   -11.358   -11.358     0.000     30.40
Pce           6.025e-05
   Pce             6.025e-05   6.025e-05    -4.220    -4.220     0.000     (0)  

------------------------------Saturation indices-------------------------------

  Phase               SI** log IAP   log K(298 K,   1 atm)

  H2(g)           -37.41    -40.51   -3.10  H2
  H2O(g)           -1.50     -0.00    1.50  H2O
  O2(g)            -8.47    -11.36   -2.89  O2

**For a gas, SI = log10(fugacity). Fugacity = pressure * phi / 1 atm.
  For ideal gases, phi = 1.

Reaction step 19.

Using solution 1.	
Using kinetics 1.	

Kinetics 1.	

	Time step: 50 seconds  (Incremented time: 950 seconds)

	Rate name       Delta Moles Total Moles   Reactant        Coefficient

	S_degradation     1.672e-06   4.142e-05   Pce                       1

-----------------------------Solution composition------------------------------

	Elements           Molality       Moles

	Pce               5.858e-05   5.858e-05

----------------------------Description of solution----------------------------

                                       pH  =   7.000      Charge balance
                                       pe  =  11.680      Adjusted to redox equilibrium
      Specific Conductance (µS/cm,  25°C)  = 0
                          Density (g/cm³)  =   0.99705
                               Volume (L)  =   1.00297
                        Activity of water  =   1.000
                 Ionic strength (mol/kgw)  =   1.006e-07
                       Mass of water (kg)  =   1.000e+00
                 Total alkalinity (eq/kg)  =   1.216e-09
                         Temperature (°C)  =  25.00
                  Electrical balance (eq)  =  -1.216e-09
 Percent error, 100*(Cat-|An|)/(Cat+|An|)  =  -0.60
                               Iterations  =  16
                                  Total H  = 1.110124e+02
                                  Total O  = 5.550622e+01

----------------------------Distribution of species----------------------------

                                               Log       Log       Log    mole V
   Species          Molality    Activity  Molality  Activity     Gamma   cm³/mol

   OH-             1.013e-07   1.012e-07    -6.995    -6.995    -0.000     -4.14
   H+              1.000e-07   1.000e-07    -7.000    -7.000    -0.000      0.00
   H2O             5.551e+01   1.000e+00     1.744    -0.000     0.000     18.07
H(0)          0.000e+00
   H2              0.000e+00   0.000e+00   -40.511   -40.511     0.000     28.61
O(0)          8.769e-12
   O2              4.384e-12   4.384e-12   -11.358   -11.358     0.000     30.40
Pce           5.858e-05
   Pce             5.858e-05   5.858e-05    -4.232    -4.232     0.000     (0)  

------------------------------Saturation indices-------------------------------

  Phase               SI** log IAP   log K(298 K,   1 atm)

  H2(g)           -37.41    -40.51   -3.10  H2
  H2O(g)           -1.50     -0.00    1.50  H2O
  O2(g)            -8.47    -11.36   -2.89  O2

**For a gas, SI = log10(fugacity). Fugacity = pressure * phi / 1 atm.
  For ideal gases, phi = 1.

Reaction step 20.

Using solution 1.	
Using kinetics 1.	

Kinetics 1.	

	Time step: 50 seconds  (Incremented time: 1000 seconds)

	Rate name       Delta Moles Total Moles   Reactant        Coefficient

	S_degradation     1.626e-06   4.304e-05   Pce                       1

-----------------------------Solution composition------------------------------

	Elements           Molality       Moles

	Pce               5.696e-05   5.696e-05

----------------------------Description of solution----------------------------

                                       pH  =   7.000      Charge balance
                                       pe  =  11.680      Adjusted to redox equilibrium
      Specific Conductance (µS/cm,  25°C)  = 0
                          Density (g/cm³)  =   0.99705
                               Volume (L)  =   1.00297
                        Activity of water  =   1.000
                 Ionic strength (mol/kgw)  =   1.006e-07
                       Mass of water (kg)  =   1.000e+00
                 Total alkalinity (eq/kg)  =   1.216e-09
                         Temperature (°C)  =  25.00
                  Electrical balance (eq)  =  -1.216e-09
 Percent error, 100*(Cat-|An|)/(Cat+|An|)  =  -0.60
                               Iterations  =  16
                                  Total H  = 1.110124e+02
                                  Total O  = 5.550622e+01

----------------------------Distribution of species----------------------------

                                               Log       Log       Log    mole V
   Species          Molality    Activity  Molality  Activity     Gamma   cm³/mol

   OH-             1.013e-07   1.012e-07    -6.995    -6.995    -0.000     -4.14
   H+              1.000e-07   1.000e-07    -7.000    -7.000    -0.000      0.00
   H2O             5.551e+01   1.000e+00     1.744    -0.000     0.000     18.07
H(0)          0.000e+00
   H2              0.000e+00   0.000e+00   -40.511   -40.511     0.000     28.61
O(0)          8.761e-12
   O2              4.381e-12   4.381e-12   -11.358   -11.358     0.000     30.40
Pce           5.696e-05
   Pce             5.696e-05   5.696e-05    -4.244    -4.244     0.000     (0)  

------------------------------Saturation indices-------------------------------

  Phase               SI** log IAP   log K(298 K,   1 atm)

  H2(g)           -37.41    -40.51   -3.10  H2
  H2O(g)           -1.50     -0.00    1.50  H2O
  O2(g)            -8.47    -11.36   -2.89  O2

**For a gas, SI = log10(fugacity). Fugacity = pressure * phi / 1 atm.
  For ideal gases, phi = 1.

Reaction step 21.

Using solution 1.	
Using kinetics 1.	

Kinetics 1.	

	Time step: 50 seconds  (Incremented time: 1050 seconds)

	Rate name       Delta Moles Total Moles   Reactant        Coefficient

	S_degradation     1.581e-06   4.463e-05   Pce                       1

-----------------------------Solution composition------------------------------

	Elements           Molality       Moles

	Pce               5.537e-05   5.537e-05

----------------------------Description of solution----------------------------

                                       pH  =   7.000      Charge balance
                                       pe  =  11.680      Adjusted to redox equilibrium
      Specific Conductance (µS/cm,  25°C)  = 0
                          Density (g/cm³)  =   0.99705
                               Volume (L)  =   1.00297
                        Activity of water  =   1.000
                 Ionic strength (mol/kgw)  =   1.006e-07
                       Mass of water (kg)  =   1.000e+00
                 Total alkalinity (eq/kg)  =   1.216e-09
                         Temperature (°C)  =  25.00
                  Electrical balance (eq)  =  -1.216e-09
 Percent error, 100*(Cat-|An|)/(Cat+|An|)  =  -0.60
                               Iterations  =  16
                                  Total H  = 1.110124e+02
                                  Total O  = 5.550622e+01

----------------------------Distribution of species----------------------------

                                               Log       Log       Log    mole V
   Species          Molality    Activity  Molality  Activity     Gamma   cm³/mol

   OH-             1.013e-07   1.012e-07    -6.995    -6.995    -0.000     -4.14
   H+              1.000e-07   1.000e-07    -7.000    -7.000    -0.000      0.00
   H2O             5.551e+01   1.000e+00     1.744    -0.000     0.000     18.07
H(0)          0.000e+00
   H2              0.000e+00   0.000e+00   -40.511   -40.511     0.000     28.61
O(0)          8.754e-12
   O2              4.377e-12   4.377e-12   -11.359   -11.359     0.000     30.40
Pce           5.537e-05
   Pce             5.537e-05   5.537e-05    -4.257    -4.257     0.000     (0)  

------------------------------Saturation indices-------------------------------

  Phase               SI** log IAP   log K(298 K,   1 atm)

  H2(g)           -37.41    -40.51   -3.10  H2
  H2O(g)           -1.50     -0.00    1.50  H2O
  O2(g)            -8.47    -11.36   -2.89  O2

**For a gas, SI = log10(fugacity). Fugacity = pressure * phi / 1 atm.
  For ideal gases, phi = 1.

Reaction step 22.

Using solution 1.	
Using kinetics 1.	

Kinetics 1.	

	Time step: 50 seconds  (Incremented time: 1100 seconds)

	Rate name       Delta Moles Total Moles   Reactant        Coefficient

	S_degradation     1.537e-06   4.616e-05   Pce                       1

-----------------------------Solution composition------------------------------

	Elements           Molality       Moles

	Pce               5.384e-05   5.384e-05

----------------------------Description of solution----------------------------

                                       pH  =   7.000      Charge balance
                                       pe  =  11.680      Adjusted to redox equilibrium
      Specific Conductance (µS/cm,  25°C)  = 0
                          Density (g/cm³)  =   0.99705
                               Volume (L)  =   1.00297
                        Activity of water  =   1.000
                 Ionic strength (mol/kgw)  =   1.006e-07
                       Mass of water (kg)  =   1.000e+00
                 Total alkalinity (eq/kg)  =   1.216e-09
                         Temperature (°C)  =  25.00
                  Electrical balance (eq)  =  -1.216e-09
 Percent error, 100*(Cat-|An|)/(Cat+|An|)  =  -0.60
                               Iterations  =  16
                                  Total H  = 1.110124e+02
                                  Total O  = 5.550622e+01

----------------------------Distribution of species----------------------------

                                               Log       Log       Log    mole V
   Species          Molality    Activity  Molality  Activity     Gamma   cm³/mol

   OH-             1.013e-07   1.012e-07    -6.995    -6.995    -0.000     -4.14
   H+              1.000e-07   1.000e-07    -7.000    -7.000    -0.000      0.00
   H2O             5.551e+01   1.000e+00     1.744    -0.000     0.000     18.07
H(0)          0.000e+00
   H2              0.000e+00   0.000e+00   -40.511   -40.511     0.000     28.61
O(0)          8.754e-12
   O2              4.377e-12   4.377e-12   -11.359   -11.359     0.000     30.40
Pce           5.384e-05
   Pce             5.384e-05   5.384e-05    -4.269    -4.269     0.000     (0)  

------------------------------Saturation indices-------------------------------

  Phase               SI** log IAP   log K(298 K,   1 atm)

  H2(g)           -37.41    -40.51   -3.10  H2
  H2O(g)           -1.50     -0.00    1.50  H2O
  O2(g)            -8.47    -11.36   -2.89  O2

**For a gas, SI = log10(fugacity). Fugacity = pressure * phi / 1 atm.
  For ideal gases, phi = 1.

Reaction step 23.

Using solution 1.	
Using kinetics 1.	

Kinetics 1.	

	Time step: 50 seconds  (Incremented time: 1150 seconds)

	Rate name       Delta Moles Total Moles   Reactant        Coefficient

	S_degradation     1.494e-06   4.766e-05   Pce                       1

-----------------------------Solution composition------------------------------

	Elements           Molality       Moles

	Pce               5.234e-05   5.234e-05

----------------------------Description of solution----------------------------

                                       pH  =   7.000      Charge balance
                                       pe  =  11.680      Adjusted to redox equilibrium
      Specific Conductance (µS/cm,  25°C)  = 0
                          Density (g/cm³)  =   0.99705
                               Volume (L)  =   1.00297
                        Activity of water  =   1.000
                 Ionic strength (mol/kgw)  =   1.006e-07
                       Mass of water (kg)  =   1.000e+00
                 Total alkalinity (eq/kg)  =   1.216e-09
                         Temperature (°C)  =  25.00
                  Electrical balance (eq)  =  -1.216e-09
 Percent error, 100*(Cat-|An|)/(Cat+|An|)  =  -0.60
                               Iterations  =  16
                                  Total H  = 1.110124e+02
                                  Total O  = 5.550622e+01

----------------------------Distribution of species----------------------------

                                               Log       Log       Log    mole V
   Species          Molality    Activity  Molality  Activity     Gamma   cm³/mol

   OH-             1.013e-07   1.012e-07    -6.995    -6.995    -0.000     -4.14
   H+              1.000e-07   1.000e-07    -7.000    -7.000    -0.000      0.00
   H2O             5.551e+01   1.000e+00     1.744    -0.000     0.000     18.07
H(0)          0.000e+00
   H2              0.000e+00   0.000e+00   -40.511   -40.511     0.000     28.61
O(0)          8.754e-12
   O2              4.377e-12   4.377e-12   -11.359   -11.359     0.000     30.40
Pce           5.234e-05
   Pce             5.234e-05   5.234e-05    -4.281    -4.281     0.000     (0)  

------------------------------Saturation indices-------------------------------

  Phase               SI** log IAP   log K(298 K,   1 atm)

  H2(g)           -37.41    -40.51   -3.10  H2
  H2O(g)           -1.50     -0.00    1.50  H2O
  O2(g)            -8.47    -11.36   -2.89  O2

**For a gas, SI = log10(fugacity). Fugacity = pressure * phi / 1 atm.
  For ideal gases, phi = 1.

Reaction step 24.

Using solution 1.	
Using kinetics 1.	

Kinetics 1.	

	Time step: 50 seconds  (Incremented time: 1200 seconds)

	Rate name       Delta Moles Total Moles   Reactant        Coefficient

	S_degradation     1.453e-06   4.911e-05   Pce                       1

-----------------------------Solution composition------------------------------

	Elements           Molality       Moles

	Pce               5.089e-05   5.089e-05

----------------------------Description of solution----------------------------

                                       pH  =   7.000      Charge balance
                                       pe  =  11.680      Adjusted to redox equilibrium
      Specific Conductance (µS/cm,  25°C)  = 0
                          Density (g/cm³)  =   0.99705
                               Volume (L)  =   1.00297
                        Activity of water  =   1.000
                 Ionic strength (mol/kgw)  =   1.006e-07
                       Mass of water (kg)  =   1.000e+00
                 Total alkalinity (eq/kg)  =   1.216e-09
                         Temperature (°C)  =  25.00
                  Electrical balance (eq)  =  -1.216e-09
 Percent error, 100*(Cat-|An|)/(Cat+|An|)  =  -0.60
                               Iterations  =  16
                                  Total H  = 1.110124e+02
                                  Total O  = 5.550622e+01

----------------------------Distribution of species----------------------------

                                               Log       Log       Log    mole V
   Species          Molality    Activity  Molality  Activity     Gamma   cm³/mol

   OH-             1.013e-07   1.012e-07    -6.995    -6.995    -0.000     -4.14
   H+              1.000e-07   1.000e-07    -7.000    -7.000    -0.000      0.00
   H2O             5.551e+01   1.000e+00     1.744    -0.000     0.000     18.07
H(0)          0.000e+00
   H2              0.000e+00   0.000e+00   -40.511   -40.511     0.000     28.61
O(0)          8.754e-12
   O2              4.377e-12   4.377e-12   -11.359   -11.359     0.000     30.40
Pce           5.089e-05
   Pce             5.089e-05   5.089e-05    -4.293    -4.293     0.000     (0)  

------------------------------Saturation indices-------------------------------

  Phase               SI** log IAP   log K(298 K,   1 atm)

  H2(g)           -37.41    -40.51   -3.10  H2
  H2O(g)           -1.50     -0.00    1.50  H2O
  O2(g)            -8.47    -11.36   -2.89  O2

**For a gas, SI = log10(fugacity). Fugacity = pressure * phi / 1 atm.
  For ideal gases, phi = 1.

Reaction step 25.

Using solution 1.	
Using kinetics 1.	

Kinetics 1.	

	Time step: 50 seconds  (Incremented time: 1250 seconds)

	Rate name       Delta Moles Total Moles   Reactant        Coefficient

	S_degradation     1.413e-06   5.052e-05   Pce                       1

-----------------------------Solution composition------------------------------

	Elements           Molality       Moles

	Pce               4.948e-05   4.948e-05

----------------------------Description of solution----------------------------

                                       pH  =   7.000      Charge balance
                                       pe  =  11.680      Adjusted to redox equilibrium
      Specific Conductance (µS/cm,  25°C)  = 0
                          Density (g/cm³)  =   0.99705
                               Volume (L)  =   1.00297
                        Activity of water  =   1.000
                 Ionic strength (mol/kgw)  =   1.006e-07
                       Mass of water (kg)  =   1.000e+00
                 Total alkalinity (eq/kg)  =   1.216e-09
                         Temperature (°C)  =  25.00
                  Electrical balance (eq)  =  -1.216e-09
 Percent error, 100*(Cat-|An|)/(Cat+|An|)  =  -0.60
                               Iterations  =  16
                                  Total H  = 1.110124e+02
                                  Total O  = 5.550622e+01

----------------------------Distribution of species----------------------------

                                               Log       Log       Log    mole V
   Species          Molality    Activity  Molality  Activity     Gamma   cm³/mol

   OH-             1.013e-07   1.012e-07    -6.995    -6.995    -0.000     -4.14
   H+              1.000e-07   1.000e-07    -7.000    -7.000    -0.000      0.00
   H2O             5.551e+01   1.000e+00     1.744    -0.000     0.000     18.07
H(0)          0.000e+00
   H2              0.000e+00   0.000e+00   -40.511   -40.511     0.000     28.61
O(0)          8.754e-12
   O2              4.377e-12   4.377e-12   -11.359   -11.359     0.000     30.40
Pce           4.948e-05
   Pce             4.948e-05   4.948e-05    -4.306    -4.306     0.000     (0)  

------------------------------Saturation indices-------------------------------

  Phase               SI** log IAP   log K(298 K,   1 atm)

  H2(g)           -37.41    -40.51   -3.10  H2
  H2O(g)           -1.50     -0.00    1.50  H2O
  O2(g)            -8.47    -11.36   -2.89  O2

**For a gas, SI = log10(fugacity). Fugacity = pressure * phi / 1 atm.
  For ideal gases, phi = 1.

Reaction step 26.

Using solution 1.	
Using kinetics 1.	

Kinetics 1.	

	Time step: 50 seconds  (Incremented time: 1300 seconds)

	Rate name       Delta Moles Total Moles   Reactant        Coefficient

	S_degradation     1.373e-06   5.190e-05   Pce                       1

-----------------------------Solution composition------------------------------

	Elements           Molality       Moles

	Pce               4.810e-05   4.810e-05

----------------------------Description of solution----------------------------

                                       pH  =   7.000      Charge balance
                                       pe  =  11.680      Adjusted to redox equilibrium
      Specific Conductance (µS/cm,  25°C)  = 0
                          Density (g/cm³)  =   0.99705
                               Volume (L)  =   1.00297
                        Activity of water  =   1.000
                 Ionic strength (mol/kgw)  =   1.006e-07
                       Mass of water (kg)  =   1.000e+00
                 Total alkalinity (eq/kg)  =   1.216e-09
                         Temperature (°C)  =  25.00
                  Electrical balance (eq)  =  -1.216e-09
 Percent error, 100*(Cat-|An|)/(Cat+|An|)  =  -0.60
                               Iterations  =  16
                                  Total H  = 1.110124e+02
                                  Total O  = 5.550622e+01

----------------------------Distribution of species----------------------------

                                               Log       Log       Log    mole V
   Species          Molality    Activity  Molality  Activity     Gamma   cm³/mol

   OH-             1.013e-07   1.012e-07    -6.995    -6.995    -0.000     -4.14
   H+              1.000e-07   1.000e-07    -7.000    -7.000    -0.000      0.00
   H2O             5.551e+01   1.000e+00     1.744    -0.000     0.000     18.07
H(0)          0.000e+00
   H2              0.000e+00   0.000e+00   -40.511   -40.511     0.000     28.61
O(0)          8.754e-12
   O2              4.377e-12   4.377e-12   -11.359   -11.359     0.000     30.40
Pce           4.810e-05
   Pce             4.810e-05   4.810e-05    -4.318    -4.318     0.000     (0)  

------------------------------Saturation indices-------------------------------

  Phase               SI** log IAP   log K(298 K,   1 atm)

  H2(g)           -37.41    -40.51   -3.10  H2
  H2O(g)           -1.50     -0.00    1.50  H2O
  O2(g)            -8.47    -11.36   -2.89  O2

**For a gas, SI = log10(fugacity). Fugacity = pressure * phi / 1 atm.
  For ideal gases, phi = 1.

Reaction step 27.

Using solution 1.	
Using kinetics 1.	

Kinetics 1.	

	Time step: 50 seconds  (Incremented time: 1350 seconds)

	Rate name       Delta Moles Total Moles   Reactant        Coefficient

	S_degradation     1.335e-06   5.323e-05   Pce                       1

-----------------------------Solution composition------------------------------

	Elements           Molality       Moles

	Pce               4.677e-05   4.677e-05

----------------------------Description of solution----------------------------

                                       pH  =   7.000      Charge balance
                                       pe  =  11.680      Adjusted to redox equilibrium
      Specific Conductance (µS/cm,  25°C)  = 0
                          Density (g/cm³)  =   0.99705
                               Volume (L)  =   1.00297
                        Activity of water  =   1.000
                 Ionic strength (mol/kgw)  =   1.006e-07
                       Mass of water (kg)  =   1.000e+00
                 Total alkalinity (eq/kg)  =   1.216e-09
                         Temperature (°C)  =  25.00
                  Electrical balance (eq)  =  -1.216e-09
 Percent error, 100*(Cat-|An|)/(Cat+|An|)  =  -0.60
                               Iterations  =  16
                                  Total H  = 1.110124e+02
                                  Total O  = 5.550622e+01

----------------------------Distribution of species----------------------------

                                               Log       Log       Log    mole V
   Species          Molality    Activity  Molality  Activity     Gamma   cm³/mol

   OH-             1.013e-07   1.012e-07    -6.995    -6.995    -0.000     -4.14
   H+              1.000e-07   1.000e-07    -7.000    -7.000    -0.000      0.00
   H2O             5.551e+01   1.000e+00     1.744    -0.000     0.000     18.07
H(0)          0.000e+00
   H2              0.000e+00   0.000e+00   -40.511   -40.511     0.000     28.61
O(0)          8.754e-12
   O2              4.377e-12   4.377e-12   -11.359   -11.359     0.000     30.40
Pce           4.677e-05
   Pce             4.677e-05   4.677e-05    -4.330    -4.330     0.000     (0)  

------------------------------Saturation indices-------------------------------

  Phase               SI** log IAP   log K(298 K,   1 atm)

  H2(g)           -37.41    -40.51   -3.10  H2
  H2O(g)           -1.50     -0.00    1.50  H2O
  O2(g)            -8.47    -11.36   -2.89  O2

**For a gas, SI = log10(fugacity). Fugacity = pressure * phi / 1 atm.
  For ideal gases, phi = 1.

Reaction step 28.

Using solution 1.	
Using kinetics 1.	

Kinetics 1.	

	Time step: 50 seconds  (Incremented time: 1400 seconds)

	Rate name       Delta Moles Total Moles   Reactant        Coefficient

	S_degradation     1.298e-06   5.453e-05   Pce                       1

-----------------------------Solution composition------------------------------

	Elements           Molality       Moles

	Pce               4.547e-05   4.547e-05

----------------------------Description of solution----------------------------

                                       pH  =   7.000      Charge balance
                                       pe  =  11.680      Adjusted to redox equilibrium
      Specific Conductance (µS/cm,  25°C)  = 0
                          Density (g/cm³)  =   0.99705
                               Volume (L)  =   1.00297
                        Activity of water  =   1.000
                 Ionic strength (mol/kgw)  =   1.006e-07
                       Mass of water (kg)  =   1.000e+00
                 Total alkalinity (eq/kg)  =   1.216e-09
                         Temperature (°C)  =  25.00
                  Electrical balance (eq)  =  -1.216e-09
 Percent error, 100*(Cat-|An|)/(Cat+|An|)  =  -0.60
                               Iterations  =  16
                                  Total H  = 1.110124e+02
                                  Total O  = 5.550622e+01

----------------------------Distribution of species----------------------------

                                               Log       Log       Log    mole V
   Species          Molality    Activity  Molality  Activity     Gamma   cm³/mol

   OH-             1.013e-07   1.012e-07    -6.995    -6.995    -0.000     -4.14
   H+              1.000e-07   1.000e-07    -7.000    -7.000    -0.000      0.00
   H2O             5.551e+01   1.000e+00     1.744    -0.000     0.000     18.07
H(0)          0.000e+00
   H2              0.000e+00   0.000e+00   -40.511   -40.511     0.000     28.61
O(0)          8.761e-12
   O2              4.381e-12   4.381e-12   -11.358   -11.358     0.000     30.40
Pce           4.547e-05
   Pce             4.547e-05   4.547e-05    -4.342    -4.342     0.000     (0)  

------------------------------Saturation indices-------------------------------

  Phase               SI** log IAP   log K(298 K,   1 atm)

  H2(g)           -37.41    -40.51   -3.10  H2
  H2O(g)           -1.50     -0.00    1.50  H2O
  O2(g)            -8.47    -11.36   -2.89  O2

**For a gas, SI = log10(fugacity). Fugacity = pressure * phi / 1 atm.
  For ideal gases, phi = 1.

Reaction step 29.

Using solution 1.	
Using kinetics 1.	

Kinetics 1.	

	Time step: 50 seconds  (Incremented time: 1450 seconds)

	Rate name       Delta Moles Total Moles   Reactant        Coefficient

	S_degradation     1.262e-06   5.579e-05   Pce                       1

-----------------------------Solution composition------------------------------

	Elements           Molality       Moles

	Pce               4.421e-05   4.421e-05

----------------------------Description of solution----------------------------

                                       pH  =   7.000      Charge balance
                                       pe  =  11.680      Adjusted to redox equilibrium
      Specific Conductance (µS/cm,  25°C)  = 0
                          Density (g/cm³)  =   0.99705
                               Volume (L)  =   1.00297
                        Activity of water  =   1.000
                 Ionic strength (mol/kgw)  =   1.006e-07
                       Mass of water (kg)  =   1.000e+00
                 Total alkalinity (eq/kg)  =   1.216e-09
                         Temperature (°C)  =  25.00
                  Electrical balance (eq)  =  -1.216e-09
 Percent error, 100*(Cat-|An|)/(Cat+|An|)  =  -0.60
                               Iterations  =  16
                                  Total H  = 1.110124e+02
                                  Total O  = 5.550622e+01

----------------------------Distribution of species----------------------------

                                               Log       Log       Log    mole V
   Species          Molality    Activity  Molality  Activity     Gamma   cm³/mol

   OH-             1.013e-07   1.012e-07    -6.995    -6.995    -0.000     -4.14
   H+              1.000e-07   1.000e-07    -7.000    -7.000    -0.000      0.00
   H2O             5.551e+01   1.000e+00     1.744    -0.000     0.000     18.07
H(0)          0.000e+00
   H2              0.000e+00   0.000e+00   -40.511   -40.511     0.000     28.61
O(0)          8.769e-12
   O2              4.384e-12   4.384e-12   -11.358   -11.358     0.000     30.40
Pce           4.421e-05
   Pce             4.421e-05   4.421e-05    -4.354    -4.354     0.000     (0)  

------------------------------Saturation indices-------------------------------

  Phase               SI** log IAP   log K(298 K,   1 atm)

  H2(g)           -37.41    -40.51   -3.10  H2
  H2O(g)           -1.50     -0.00    1.50  H2O
  O2(g)            -8.47    -11.36   -2.89  O2

**For a gas, SI = log10(fugacity). Fugacity = pressure * phi / 1 atm.
  For ideal gases, phi = 1.

Reaction step 30.

Using solution 1.	
Using kinetics 1.	

Kinetics 1.	

	Time step: 50 seconds  (Incremented time: 1500 seconds)

	Rate name       Delta Moles Total Moles   Reactant        Coefficient

	S_degradation     1.227e-06   5.702e-05   Pce                       1

-----------------------------Solution composition------------------------------

	Elements           Molality       Moles

	Pce               4.298e-05   4.298e-05

----------------------------Description of solution----------------------------

                                       pH  =   7.000      Charge balance
                                       pe  =  11.680      Adjusted to redox equilibrium
      Specific Conductance (µS/cm,  25°C)  = 0
                          Density (g/cm³)  =   0.99705
                               Volume (L)  =   1.00297
                        Activity of water  =   1.000
                 Ionic strength (mol/kgw)  =   1.006e-07
                       Mass of water (kg)  =   1.000e+00
                 Total alkalinity (eq/kg)  =   1.216e-09
                         Temperature (°C)  =  25.00
                  Electrical balance (eq)  =  -1.216e-09
 Percent error, 100*(Cat-|An|)/(Cat+|An|)  =  -0.60
                               Iterations  =  16
[...]
                 Ionic strength (mol/kgw)  =   1.006e-07
                       Mass of water (kg)  =   1.000e+00
                 Total alkalinity (eq/kg)  =   1.216e-09
                         Temperature (°C)  =  25.00
                  Electrical balance (eq)  =  -1.216e-09
 Percent error, 100*(Cat-|An|)/(Cat+|An|)  =  -0.60
                               Iterations  =   3
                                  Total H  = 1.110124e+02
                                  Total O  = 5.550622e+01

----------------------------Distribution of species----------------------------

                                               Log       Log       Log    mole V
   Species          Molality    Activity  Molality  Activity     Gamma   cm³/mol

   OH-             1.013e-07   1.012e-07    -6.995    -6.995    -0.000     -4.14
   H+              1.000e-07   1.000e-07    -7.000    -7.000    -0.000      0.00
   H2O             5.551e+01   1.000e+00     1.744    -0.000     0.000     18.07
H(0)          0.000e+00
   H2              0.000e+00   0.000e+00   -40.508   -40.508     0.000     28.61
O(0)          8.662e-12
   O2              4.331e-12   4.331e-12   -11.363   -11.363     0.000     30.40
Pce           4.135e-07
   Pce             4.135e-07   4.135e-07    -6.384    -6.384     0.000     (0)  

------------------------------Saturation indices-------------------------------

  Phase               SI** log IAP   log K(298 K,   1 atm)

  H2(g)           -37.41    -40.51   -3.10  H2
  H2O(g)           -1.50     -0.00    1.50  H2O
  O2(g)            -8.47    -11.36   -2.89  O2

**For a gas, SI = log10(fugacity). Fugacity = pressure * phi / 1 atm.
  For ideal gases, phi = 1.

Reaction step 194.

Using solution 1.	
Using kinetics 1.	

Kinetics 1.	

	Time step: 50 seconds  (Incremented time: 9700 seconds)

	Rate name       Delta Moles Total Moles   Reactant        Coefficient

	S_degradation     1.164e-08   9.960e-05   Pce                       1

-----------------------------Solution composition------------------------------

	Elements           Molality       Moles

	Pce               4.019e-07   4.019e-07

----------------------------Description of solution----------------------------

                                       pH  =   7.000      Charge balance
                                       pe  =  11.679      Adjusted to redox equilibrium
      Specific Conductance (µS/cm,  25°C)  = 0
                          Density (g/cm³)  =   0.99704
                               Volume (L)  =   1.00297
                        Activity of water  =   1.000
                 Ionic strength (mol/kgw)  =   1.006e-07
                       Mass of water (kg)  =   1.000e+00
                 Total alkalinity (eq/kg)  =   1.216e-09
                         Temperature (°C)  =  25.00
                  Electrical balance (eq)  =  -1.216e-09
 Percent error, 100*(Cat-|An|)/(Cat+|An|)  =  -0.60
                               Iterations  =   3
                                  Total H  = 1.110124e+02
                                  Total O  = 5.550622e+01

----------------------------Distribution of species----------------------------

                                               Log       Log       Log    mole V
   Species          Molality    Activity  Molality  Activity     Gamma   cm³/mol

   OH-             1.013e-07   1.012e-07    -6.995    -6.995    -0.000     -4.14
   H+              1.000e-07   1.000e-07    -7.000    -7.000    -0.000      0.00
   H2O             5.551e+01   1.000e+00     1.744    -0.000     0.000     18.07
H(0)          0.000e+00
   H2              0.000e+00   0.000e+00   -40.508   -40.508     0.000     28.61
O(0)          8.662e-12
   O2              4.331e-12   4.331e-12   -11.363   -11.363     0.000     30.40
Pce           4.019e-07
   Pce             4.019e-07   4.019e-07    -6.396    -6.396     0.000     (0)  

------------------------------Saturation indices-------------------------------

  Phase               SI** log IAP   log K(298 K,   1 atm)

  H2(g)           -37.41    -40.51   -3.10  H2
  H2O(g)           -1.50     -0.00    1.50  H2O
  O2(g)            -8.47    -11.36   -2.89  O2

**For a gas, SI = log10(fugacity). Fugacity = pressure * phi / 1 atm.
  For ideal gases, phi = 1.

Reaction step 195.

Using solution 1.	
Using kinetics 1.	

Kinetics 1.	

	Time step: 50 seconds  (Incremented time: 9750 seconds)

	Rate name       Delta Moles Total Moles   Reactant        Coefficient

	S_degradation     1.131e-08   9.961e-05   Pce                       1

-----------------------------Solution composition------------------------------

	Elements           Molality       Moles

	Pce               3.905e-07   3.905e-07

----------------------------Description of solution----------------------------

                                       pH  =   7.000      Charge balance
                                       pe  =  11.679      Adjusted to redox equilibrium
      Specific Conductance (µS/cm,  25°C)  = 0
                          Density (g/cm³)  =   0.99704
                               Volume (L)  =   1.00297
                        Activity of water  =   1.000
                 Ionic strength (mol/kgw)  =   1.006e-07
                       Mass of water (kg)  =   1.000e+00
                 Total alkalinity (eq/kg)  =   1.216e-09
                         Temperature (°C)  =  25.00
                  Electrical balance (eq)  =  -1.216e-09
 Percent error, 100*(Cat-|An|)/(Cat+|An|)  =  -0.60
                               Iterations  =   3
                                  Total H  = 1.110124e+02
                                  Total O  = 5.550622e+01

----------------------------Distribution of species----------------------------

                                               Log       Log       Log    mole V
   Species          Molality    Activity  Molality  Activity     Gamma   cm³/mol

   OH-             1.013e-07   1.012e-07    -6.995    -6.995    -0.000     -4.14
   H+              1.000e-07   1.000e-07    -7.000    -7.000    -0.000      0.00
   H2O             5.551e+01   1.000e+00     1.744    -0.000     0.000     18.07
H(0)          0.000e+00
   H2              0.000e+00   0.000e+00   -40.508   -40.508     0.000     28.61
O(0)          8.662e-12
   O2              4.331e-12   4.331e-12   -11.363   -11.363     0.000     30.40
Pce           3.905e-07
   Pce             3.905e-07   3.905e-07    -6.408    -6.408     0.000     (0)  

------------------------------Saturation indices-------------------------------

  Phase               SI** log IAP   log K(298 K,   1 atm)

  H2(g)           -37.41    -40.51   -3.10  H2
  H2O(g)           -1.50     -0.00    1.50  H2O
  O2(g)            -8.47    -11.36   -2.89  O2

**For a gas, SI = log10(fugacity). Fugacity = pressure * phi / 1 atm.
  For ideal gases, phi = 1.

Reaction step 196.

Using solution 1.	
Using kinetics 1.	

Kinetics 1.	

	Time step: 50 seconds  (Incremented time: 9800 seconds)

	Rate name       Delta Moles Total Moles   Reactant        Coefficient

	S_degradation     1.100e-08   9.962e-05   Pce                       1

-----------------------------Solution composition------------------------------

	Elements           Molality       Moles

	Pce               3.796e-07   3.796e-07

----------------------------Description of solution----------------------------

                                       pH  =   7.000      Charge balance
                                       pe  =  11.679      Adjusted to redox equilibrium
      Specific Conductance (µS/cm,  25°C)  = 0
                          Density (g/cm³)  =   0.99704
                               Volume (L)  =   1.00297
                        Activity of water  =   1.000
                 Ionic strength (mol/kgw)  =   1.006e-07
                       Mass of water (kg)  =   1.000e+00
                 Total alkalinity (eq/kg)  =   1.216e-09
                         Temperature (°C)  =  25.00
                  Electrical balance (eq)  =  -1.216e-09
 Percent error, 100*(Cat-|An|)/(Cat+|An|)  =  -0.60
                               Iterations  =   3
                                  Total H  = 1.110124e+02
                                  Total O  = 5.550622e+01

----------------------------Distribution of species----------------------------

                                               Log       Log       Log    mole V
   Species          Molality    Activity  Molality  Activity     Gamma   cm³/mol

   OH-             1.013e-07   1.012e-07    -6.995    -6.995    -0.000     -4.14
   H+              1.000e-07   1.000e-07    -7.000    -7.000    -0.000      0.00
   H2O             5.551e+01   1.000e+00     1.744    -0.000     0.000     18.07
H(0)          0.000e+00
   H2              0.000e+00   0.000e+00   -40.508   -40.508     0.000     28.61
O(0)          8.662e-12
   O2              4.331e-12   4.331e-12   -11.363   -11.363     0.000     30.40
Pce           3.796e-07
   Pce             3.796e-07   3.796e-07    -6.421    -6.421     0.000     (0)  

------------------------------Saturation indices-------------------------------

  Phase               SI** log IAP   log K(298 K,   1 atm)

  H2(g)           -37.41    -40.51   -3.10  H2
  H2O(g)           -1.50     -0.00    1.50  H2O
  O2(g)            -8.47    -11.36   -2.89  O2

**For a gas, SI = log10(fugacity). Fugacity = pressure * phi / 1 atm.
  For ideal gases, phi = 1.

Reaction step 197.

Using solution 1.	
Using kinetics 1.	

Kinetics 1.	

	Time step: 50 seconds  (Incremented time: 9850 seconds)

	Rate name       Delta Moles Total Moles   Reactant        Coefficient

	S_degradation     1.069e-08   9.963e-05   Pce                       1

-----------------------------Solution composition------------------------------

	Elements           Molality       Moles

	Pce               3.689e-07   3.689e-07

----------------------------Description of solution----------------------------

                                       pH  =   7.000      Charge balance
                                       pe  =  11.679      Adjusted to redox equilibrium
      Specific Conductance (µS/cm,  25°C)  = 0
                          Density (g/cm³)  =   0.99704
                               Volume (L)  =   1.00297
                        Activity of water  =   1.000
                 Ionic strength (mol/kgw)  =   1.006e-07
                       Mass of water (kg)  =   1.000e+00
                 Total alkalinity (eq/kg)  =   1.216e-09
                         Temperature (°C)  =  25.00
                  Electrical balance (eq)  =  -1.216e-09
 Percent error, 100*(Cat-|An|)/(Cat+|An|)  =  -0.60
                               Iterations  =   3
                                  Total H  = 1.110124e+02
                                  Total O  = 5.550622e+01

----------------------------Distribution of species----------------------------

                                               Log       Log       Log    mole V
   Species          Molality    Activity  Molality  Activity     Gamma   cm³/mol

   OH-             1.013e-07   1.012e-07    -6.995    -6.995    -0.000     -4.14
   H+              1.000e-07   1.000e-07    -7.000    -7.000    -0.000      0.00
   H2O             5.551e+01   1.000e+00     1.744    -0.000     0.000     18.07
H(0)          0.000e+00
   H2              0.000e+00   0.000e+00   -40.508   -40.508     0.000     28.61
O(0)          8.662e-12
   O2              4.331e-12   4.331e-12   -11.363   -11.363     0.000     30.40
Pce           3.689e-07
   Pce             3.689e-07   3.689e-07    -6.433    -6.433     0.000     (0)  

------------------------------Saturation indices-------------------------------

  Phase               SI** log IAP   log K(298 K,   1 atm)

  H2(g)           -37.41    -40.51   -3.10  H2
  H2O(g)           -1.50     -0.00    1.50  H2O
  O2(g)            -8.47    -11.36   -2.89  O2

**For a gas, SI = log10(fugacity). Fugacity = pressure * phi / 1 atm.
  For ideal gases, phi = 1.

Reaction step 198.

Using solution 1.	
Using kinetics 1.	

Kinetics 1.	

	Time step: 50 seconds  (Incremented time: 9900 seconds)

	Rate name       Delta Moles Total Moles   Reactant        Coefficient

	S_degradation     1.039e-08   9.964e-05   Pce                       1

-----------------------------Solution composition------------------------------

	Elements           Molality       Moles

	Pce               3.585e-07   3.585e-07

----------------------------Description of solution----------------------------

                                       pH  =   7.000      Charge balance
                                       pe  =  11.679      Adjusted to redox equilibrium
      Specific Conductance (µS/cm,  25°C)  = 0
                          Density (g/cm³)  =   0.99704
                               Volume (L)  =   1.00297
                        Activity of water  =   1.000
                 Ionic strength (mol/kgw)  =   1.006e-07
                       Mass of water (kg)  =   1.000e+00
                 Total alkalinity (eq/kg)  =   1.216e-09
                         Temperature (°C)  =  25.00
                  Electrical balance (eq)  =  -1.216e-09
 Percent error, 100*(Cat-|An|)/(Cat+|An|)  =  -0.60
                               Iterations  =   3
                                  Total H  = 1.110124e+02
                                  Total O  = 5.550622e+01

----------------------------Distribution of species----------------------------

                                               Log       Log       Log    mole V
   Species          Molality    Activity  Molality  Activity     Gamma   cm³/mol

   OH-             1.013e-07   1.012e-07    -6.995    -6.995    -0.000     -4.14
   H+              1.000e-07   1.000e-07    -7.000    -7.000    -0.000      0.00
   H2O             5.551e+01   1.000e+00     1.744    -0.000     0.000     18.07
H(0)          0.000e+00
   H2              0.000e+00   0.000e+00   -40.508   -40.508     0.000     28.61
O(0)          8.662e-12
   O2              4.331e-12   4.331e-12   -11.363   -11.363     0.000     30.40
Pce           3.585e-07
   Pce             3.585e-07   3.585e-07    -6.446    -6.446     0.000     (0)  

------------------------------Saturation indices-------------------------------

  Phase               SI** log IAP   log K(298 K,   1 atm)

  H2(g)           -37.41    -40.51   -3.10  H2
  H2O(g)           -1.50     -0.00    1.50  H2O
  O2(g)            -8.47    -11.36   -2.89  O2

**For a gas, SI = log10(fugacity). Fugacity = pressure * phi / 1 atm.
  For ideal gases, phi = 1.

Reaction step 199.

Using solution 1.	
Using kinetics 1.	

Kinetics 1.	

	Time step: 50 seconds  (Incremented time: 9950 seconds)

	Rate name       Delta Moles Total Moles   Reactant        Coefficient

	S_degradation     1.009e-08   9.965e-05   Pce                       1

-----------------------------Solution composition------------------------------

	Elements           Molality       Moles

	Pce               3.484e-07   3.484e-07

----------------------------Description of solution----------------------------

                                       pH  =   7.000      Charge balance
                                       pe  =  11.679      Adjusted to redox equilibrium
      Specific Conductance (µS/cm,  25°C)  = 0
                          Density (g/cm³)  =   0.99704
                               Volume (L)  =   1.00297
                        Activity of water  =   1.000
                 Ionic strength (mol/kgw)  =   1.006e-07
                       Mass of water (kg)  =   1.000e+00
                 Total alkalinity (eq/kg)  =   1.216e-09
                         Temperature (°C)  =  25.00
                  Electrical balance (eq)  =  -1.216e-09
 Percent error, 100*(Cat-|An|)/(Cat+|An|)  =  -0.60
                               Iterations  =   3
                                  Total H  = 1.110124e+02
                                  Total O  = 5.550622e+01

----------------------------Distribution of species----------------------------

                                               Log       Log       Log    mole V
   Species          Molality    Activity  Molality  Activity     Gamma   cm³/mol

   OH-             1.013e-07   1.012e-07    -6.995    -6.995    -0.000     -4.14
   H+              1.000e-07   1.000e-07    -7.000    -7.000    -0.000      0.00
   H2O             5.551e+01   1.000e+00     1.744    -0.000     0.000     18.07
H(0)          0.000e+00
   H2              0.000e+00   0.000e+00   -40.508   -40.508     0.000     28.61
O(0)          8.662e-12
   O2              4.331e-12   4.331e-12   -11.363   -11.363     0.000     30.40
Pce           3.484e-07
   Pce             3.484e-07   3.484e-07    -6.458    -6.458     0.000     (0)  

------------------------------Saturation indices-------------------------------

  Phase               SI** log IAP   log K(298 K,   1 atm)

  H2(g)           -37.41    -40.51   -3.10  H2
  H2O(g)           -1.50     -0.00    1.50  H2O
  O2(g)            -8.47    -11.36   -2.89  O2

**For a gas, SI = log10(fugacity). Fugacity = pressure * phi / 1 atm.
  For ideal gases, phi = 1.

Reaction step 200.

Using solution 1.	
Using kinetics 1.	

Kinetics 1.	

	Time step: 50 seconds  (Incremented time: 10000 seconds)

	Rate name       Delta Moles Total Moles   Reactant        Coefficient

	S_degradation     9.809e-09   9.966e-05   Pce                       1

-----------------------------Solution composition------------------------------

	Elements           Molality       Moles

	Pce               3.386e-07   3.386e-07

----------------------------Description of solution----------------------------

                                       pH  =   7.000      Charge balance
                                       pe  =  11.679      Adjusted to redox equilibrium
      Specific Conductance (µS/cm,  25°C)  = 0
                          Density (g/cm³)  =   0.99704
                               Volume (L)  =   1.00297
                        Activity of water  =   1.000
                 Ionic strength (mol/kgw)  =   1.006e-07
                       Mass of water (kg)  =   1.000e+00
                 Total alkalinity (eq/kg)  =   1.216e-09
                         Temperature (°C)  =  25.00
                  Electrical balance (eq)  =  -1.216e-09
 Percent error, 100*(Cat-|An|)/(Cat+|An|)  =  -0.60
                               Iterations  =   3
                                  Total H  = 1.110124e+02
                                  Total O  = 5.550622e+01

----------------------------Distribution of species----------------------------

                                               Log       Log       Log    mole V
   Species          Molality    Activity  Molality  Activity     Gamma   cm³/mol

   OH-             1.013e-07   1.012e-07    -6.995    -6.995    -0.000     -4.14
   H+              1.000e-07   1.000e-07    -7.000    -7.000    -0.000      0.00
   H2O             5.551e+01   1.000e+00     1.744    -0.000     0.000     18.07
H(0)          0.000e+00
   H2              0.000e+00   0.000e+00   -40.508   -40.508     0.000     28.61
O(0)          8.662e-12
   O2              4.331e-12   4.331e-12   -11.363   -11.363     0.000     30.40
Pce           3.386e-07
   Pce             3.386e-07   3.386e-07    -6.470    -6.470     0.000     (0)  

------------------------------Saturation indices-------------------------------

  Phase               SI** log IAP   log K(298 K,   1 atm)

  H2(g)           -37.41    -40.51   -3.10  H2
  H2O(g)           -1.50     -0.00    1.50  H2O
  O2(g)            -8.47    -11.36   -2.89  O2

**For a gas, SI = log10(fugacity). Fugacity = pressure * phi / 1 atm.
  For ideal gases, phi = 1.

------------------
End of simulation.
------------------

------------------------------------
Reading input data for simulation 2.
------------------------------------

-------------------------------
End of Run after 1.384 Seconds.
-------------------------------

