WARNING: Database file from DATABASE keyword is used; command line argument ignored.
   Input file: C:\Users\Eirik\Desktop\phreeqc-3.6.2-15100-x64\bin\aa.pqi
  Output file: C:\Users\Eirik\Desktop\phreeqc-3.6.2-15100-x64\bin\aa.pqi.out
Database file: C:\Users\Eirik\Desktop\phreeqc-3.6.2-15100-x64\database\phreeqc.dat

------------------
Reading data base.
------------------

	SOLUTION_MASTER_SPECIES
	SOLUTION_SPECIES
	PHASES
	EXCHANGE_MASTER_SPECIES
	EXCHANGE_SPECIES
	SURFACE_MASTER_SPECIES
	SURFACE_SPECIES
	RATES
	END
------------------------------------
Reading input data for simulation 1.
------------------------------------

	DATABASE C:\Users\Eirik\Desktop\phreeqc-3.6.2-15100-x64\database\phreeqc.dat
	SOLUTION_MASTER_SPECIES
		Tca	Tca	0	Tca	133.4
		Pce	Pce	0	Pce	165.8
	SOLUTION_SPECIES
		Tca = Tca
			log_k 0
		Pce = Pce
			log_k 0
	PHASES
		Tca_lq
		Tca = Tca
			log_k -2.01	#log(solubility in mol/L)
		Pce_lq
		Pce = Pce
			log_k -2.92
	SOLID_SOLUTIONS 1
		Pool
		component Tca_lq	0.0008
		component Pce_lq	0.0008
	SOLUTION 1-10
		pH 7
		units mmol/L
	    Tca 0.4*(1/133.4)
	    Pce 0.3*(1/165.8)
		Ca 1
		Cl 2
		water 0.1
	EXCHANGE 1-80
	  X 1.1e-3
	  equilibrate 1
	END
-------------------------------------------
Beginning of initial solution calculations.
-------------------------------------------

Initial solution 1.	

-----------------------------Solution composition------------------------------

	Elements           Molality       Moles

	Ca                1.000e-03   1.000e-04
	Cl                2.000e-03   2.000e-04
	Pce               3.001e-04   3.001e-05
	Tca               4.001e-04   4.001e-05

----------------------------Description of solution----------------------------

                                       pH  =   7.000    
                                       pe  =   4.000    
      Specific Conductance (µS/cm,  25°C)  = 251
                          Density (g/cm³)  =   0.99724
                               Volume (L)  =   0.10030
                        Activity of water  =   1.000
                 Ionic strength (mol/kgw)  =   3.001e-03
                       Mass of water (kg)  =   1.000e-01
                 Total alkalinity (eq/kg)  =   3.224e-09
                         Temperature (°C)  =  25.00
                  Electrical balance (eq)  =  -3.224e-10
 Percent error, 100*(Cat-|An|)/(Cat+|An|)  =  -0.00
                               Iterations  =   4
                                  Total H  = 1.110124e+01
                                  Total O  = 5.550622e+00

----------------------------Distribution of species----------------------------

                                               Log       Log       Log    mole V
   Species          Molality    Activity  Molality  Activity     Gamma   cm³/mol

   OH-             1.075e-07   1.012e-07    -6.968    -6.995    -0.026     -4.08
   H+              1.057e-07   1.000e-07    -6.976    -7.000    -0.024      0.00
   H2O             5.551e+01   9.999e-01     1.744    -0.000     0.000     18.07
Ca            1.000e-03
   Ca+2            1.000e-03   7.908e-04    -3.000    -3.102    -0.102    -18.06
   CaOH+           1.393e-09   1.312e-09    -8.856    -8.882    -0.026     (0)  
Cl            2.000e-03
   Cl-             2.000e-03   1.883e-03    -2.699    -2.725    -0.026     18.10
H(0)          1.415e-25
   H2              7.075e-26   7.079e-26   -25.150   -25.150     0.000     28.61
O(0)          0.000e+00
   O2              0.000e+00   0.000e+00   -42.080   -42.080     0.000     30.40
Pce           3.001e-04
   Pce             3.001e-04   3.003e-04    -3.523    -3.522     0.000     (0)  
Tca           4.001e-04
   Tca             4.001e-04   4.004e-04    -3.398    -3.398     0.000     (0)  

------------------------------Saturation indices-------------------------------

  Phase               SI** log IAP   log K(298 K,   1 atm)

  H2(g)           -22.05    -25.15   -3.10  H2
  H2O(g)           -1.50     -0.00    1.50  H2O
  O2(g)           -39.19    -42.08   -2.89  O2
  Pce_lq           -0.60     -3.52   -2.92  Pce
  Tca_lq           -1.39     -3.40   -2.01  Tca

**For a gas, SI = log10(fugacity). Fugacity = pressure * phi / 1 atm.
  For ideal gases, phi = 1.

-------------------------------------------------------
Beginning of initial exchange-composition calculations.
-------------------------------------------------------

Exchange 1.	

X                1.100e-03 mol

	                               Equiv-    Equivalent      Log 
	Species             Moles      alents      Fraction     Gamma

	CaX2              5.500e-04   1.100e-03   1.000e+00    -0.102

-----------------------------------------
Beginning of batch-reaction calculations.
-----------------------------------------

Reaction step 1.

Using solution 1.	
Using exchange 1.	Exchange assemblage after simulation 1.
Using solid solution assemblage 1.	

--------------------------------Solid solutions--------------------------------


Solid solution                Component        Moles  Delta moles   Mole fract

Pool                                        1.22e-03
                                 Tca_lq     4.67e-04    -3.33e-04     3.82e-01
                                 Pce_lq     7.56e-04    -4.42e-05     6.18e-01

-----------------------------Exchange composition------------------------------

X                1.100e-03 mol

	                               Equiv-    Equivalent      Log 
	Species             Moles      alents      Fraction     Gamma

	CaX2              5.500e-04   1.100e-03   1.000e+00    -0.102

-----------------------------Solution composition------------------------------

	Elements           Molality       Moles

	Ca                1.000e-03   1.000e-04
	Cl                2.000e-03   2.000e-04
	Pce               7.426e-04   7.426e-05
	Tca               3.730e-03   3.730e-04

----------------------------Description of solution----------------------------

                                       pH  =   7.000      Charge balance
                                       pe  =  10.472      Adjusted to redox equilibrium
      Specific Conductance (µS/cm,  25°C)  = 251
                          Density (g/cm³)  =   0.99775
                               Volume (L)  =   0.10030
                        Activity of water  =   1.000
                 Ionic strength (mol/kgw)  =   3.001e-03
                       Mass of water (kg)  =   1.000e-01
                 Total alkalinity (eq/kg)  =   3.224e-09
                         Temperature (°C)  =  25.00
                  Electrical balance (eq)  =  -3.224e-10
 Percent error, 100*(Cat-|An|)/(Cat+|An|)  =  -0.00
                               Iterations  =  12
                                  Total H  = 1.110124e+01
                                  Total O  = 5.550622e+00

----------------------------Distribution of species----------------------------

                                               Log       Log       Log    mole V
   Species          Molality    Activity  Molality  Activity     Gamma   cm³/mol

   OH-             1.075e-07   1.012e-07    -6.969    -6.995    -0.026     -4.08
   H+              1.057e-07   1.000e-07    -6.976    -7.000    -0.024      0.00
   H2O             5.551e+01   9.999e-01     1.744    -0.000     0.000     18.07
Ca            1.000e-03
   Ca+2            1.000e-03   7.908e-04    -3.000    -3.102    -0.102    -18.06
   CaOH+           1.393e-09   1.312e-09    -8.856    -8.882    -0.026     (0)  
Cl            2.000e-03
   Cl-             2.000e-03   1.883e-03    -2.699    -2.725    -0.026     18.10
H(0)          1.606e-38
   H2              8.030e-39   8.036e-39   -38.095   -38.095     0.000     28.61
O(0)          1.290e-16
   O2              6.450e-17   6.454e-17   -16.190   -16.190     0.000     30.40
Pce           7.426e-04
   Pce             7.426e-04   7.431e-04    -3.129    -3.129     0.000     (0)  
Tca           3.730e-03
   Tca             3.730e-03   3.732e-03    -2.428    -2.428     0.000     (0)  

------------------------------Saturation indices-------------------------------

  Phase               SI** log IAP   log K(298 K,   1 atm)

  H2(g)           -34.99    -38.09   -3.10  H2
  H2O(g)           -1.50     -0.00    1.50  H2O
  O2(g)           -13.30    -16.19   -2.89  O2
  Pce_lq           -0.21     -3.13   -2.92  Pce
  Tca_lq           -0.42     -2.43   -2.01  Tca

**For a gas, SI = log10(fugacity). Fugacity = pressure * phi / 1 atm.
  For ideal gases, phi = 1.

------------------
End of simulation.
------------------

------------------------------------
Reading input data for simulation 2.
------------------------------------

	SOLUTION 0 Displacing solution, CaCl2
	  units mmol/L
	  Ca 0.6
	  Cl 1.2
	END
-------------------------------------------
Beginning of initial solution calculations.
-------------------------------------------

Initial solution 0.	Displacing solution, CaCl2

-----------------------------Solution composition------------------------------

	Elements           Molality       Moles

	Ca                6.000e-04   6.000e-04
	Cl                1.200e-03   1.200e-03

----------------------------Description of solution----------------------------

                                       pH  =   7.000    
                                       pe  =   4.000    
      Specific Conductance (µS/cm,  25°C)  = 152
                          Density (g/cm³)  =   0.99710
                               Volume (L)  =   1.00298
                        Activity of water  =   1.000
                 Ionic strength (mol/kgw)  =   1.800e-03
                       Mass of water (kg)  =   1.000e+00
                 Total alkalinity (eq/kg)  =   2.478e-09
                         Temperature (°C)  =  25.00
                  Electrical balance (eq)  =  -2.478e-09
 Percent error, 100*(Cat-|An|)/(Cat+|An|)  =  -0.00
                               Iterations  =   4
                                  Total H  = 1.110124e+02
                                  Total O  = 5.550622e+01

----------------------------Distribution of species----------------------------

                                               Log       Log       Log    mole V
   Species          Molality    Activity  Molality  Activity     Gamma   cm³/mol

   OH-             1.061e-07   1.012e-07    -6.974    -6.995    -0.021     -4.10
   H+              1.045e-07   1.000e-07    -6.981    -7.000    -0.019      0.00
   H2O             5.551e+01   1.000e+00     1.744    -0.000     0.000     18.07
Ca            6.000e-04
   Ca+2            6.000e-04   4.984e-04    -3.222    -3.302    -0.081    -18.10
   CaOH+           8.670e-10   8.271e-10    -9.062    -9.082    -0.020     (0)  
Cl            1.200e-03
   Cl-             1.200e-03   1.145e-03    -2.921    -2.941    -0.021     18.08
H(0)          1.415e-25
   H2              7.077e-26   7.079e-26   -25.150   -25.150     0.000     28.61
O(0)          0.000e+00
   O2              0.000e+00   0.000e+00   -42.080   -42.080     0.000     30.40

------------------------------Saturation indices-------------------------------

  Phase               SI** log IAP   log K(298 K,   1 atm)

  H2(g)           -22.05    -25.15   -3.10  H2
  H2O(g)           -1.50     -0.00    1.50  H2O
  O2(g)           -39.19    -42.08   -2.89  O2

**For a gas, SI = log10(fugacity). Fugacity = pressure * phi / 1 atm.
  For ideal gases, phi = 1.

------------------
End of simulation.
------------------

------------------------------------
Reading input data for simulation 3.
------------------------------------

	PRINT 
	reset false # suspend output
WARNING: Cell-lengths were read for 1 cells. Last value is used till cell 10.
WARNING: Dispersivities were read for 1 cells. Last value is used till cell 10.
WARNING: Maximum iterations exceeded, 100

WARNING: Numerical method failed with this set of convergence parameters.

WARNING: Trying smaller step size, pe step size 10, 5 ... 

-------------------------------
End of Run after 1.729 Seconds.
-------------------------------

