   Input file: C:\Users\Eirik\Desktop\phreeqc-3.6.2-15100-x64\bin\Ex105-1.phr
  Output file: C:\Users\Eirik\Desktop\phreeqc-3.6.2-15100-x64\bin\Ex105-1.phr.out
Database file: C:\Users\Eirik\Desktop\phreeqc-3.6.2-15100-x64\database\phreeqc.dat

------------------
Reading data base.
------------------

	SOLUTION_MASTER_SPECIES
	SOLUTION_SPECIES
	PHASES
	EXCHANGE_MASTER_SPECIES
	EXCHANGE_SPECIES
	SURFACE_MASTER_SPECIES
	SURFACE_SPECIES
	RATES
	END
------------------------------------
Reading input data for simulation 1.
------------------------------------

	SOLUTION_MASTER_SPECIES
		Tca	Tca	0	Tca	133.4
		Pce	Pce	0	Pce	165.8
	SOLUTION_SPECIES
		Tca = Tca
			log_k 0
		Pce = Pce
			log_k 0
	PHASES
		Tca_lq
		Tca = Tca
			log_k -2.01	#log(solubility in mol/L)
		Pce_lq
		Pce = Pce
			log_k -2.92
	SOLID_SOLUTIONS 1
		Pool
		component Tca_lq	0.0008
		component Pce_lq	0.0008
	SOLUTION 1
		water 0.1
	END
-------------------------------------------
Beginning of initial solution calculations.
-------------------------------------------

Initial solution 1.	

-----------------------------Solution composition------------------------------

	Elements           Molality       Moles

	Pure water     

----------------------------Description of solution----------------------------

                                       pH  =   7.000    
                                       pe  =   4.000    
      Specific Conductance (µS/cm,  25°C)  = 0
                          Density (g/cm³)  =   0.99704
                               Volume (L)  =   0.10030
                        Activity of water  =   1.000
                 Ionic strength (mol/kgw)  =   1.007e-07
                       Mass of water (kg)  =   1.000e-01
                 Total alkalinity (eq/kg)  =   1.217e-09
                         Temperature (°C)  =  25.00
                  Electrical balance (eq)  =  -1.217e-10
 Percent error, 100*(Cat-|An|)/(Cat+|An|)  =  -0.60
                               Iterations  =   0
                                  Total H  = 1.110124e+01
                                  Total O  = 5.550622e+00

----------------------------Distribution of species----------------------------

                                               Log       Log       Log    mole V
   Species          Molality    Activity  Molality  Activity     Gamma   cm³/mol

   OH-             1.013e-07   1.012e-07    -6.995    -6.995    -0.000     -4.14
   H+              1.001e-07   1.000e-07    -7.000    -7.000    -0.000      0.00
   H2O             5.551e+01   1.000e+00     1.744     0.000     0.000     18.07
H(0)          1.416e-25
   H2              7.079e-26   7.079e-26   -25.150   -25.150     0.000     28.61
O(0)          0.000e+00
   O2              0.000e+00   0.000e+00   -42.080   -42.080     0.000     30.40

------------------------------Saturation indices-------------------------------

  Phase               SI** log IAP   log K(298 K,   1 atm)

  H2(g)           -22.05    -25.15   -3.10  H2
  H2O(g)           -1.50      0.00    1.50  H2O
  O2(g)           -39.19    -42.08   -2.89  O2

**For a gas, SI = log10(fugacity). Fugacity = pressure * phi / 1 atm.
  For ideal gases, phi = 1.

-----------------------------------------
Beginning of batch-reaction calculations.
-----------------------------------------

Reaction step 1.

Using solution 1.	
Using solid solution assemblage 1.	

--------------------------------Solid solutions--------------------------------


Solid solution                Component        Moles  Delta moles   Mole fract

Pool                                        1.16e-03
                                 Tca_lq     4.34e-04    -3.66e-04     3.75e-01
                                 Pce_lq     7.25e-04    -7.52e-05     6.25e-01

-----------------------------Solution composition------------------------------

	Elements           Molality       Moles

	Pce               7.520e-04   7.520e-05
	Tca               3.660e-03   3.660e-04

----------------------------Description of solution----------------------------

                                       pH  =   7.000      Charge balance
                                       pe  =  -1.469      Adjusted to redox equilibrium
      Specific Conductance (µS/cm,  25°C)  = 0
                          Density (g/cm³)  =   0.99765
                               Volume (L)  =   0.10030
                        Activity of water  =   1.000
                 Ionic strength (mol/kgw)  =   1.006e-07
                       Mass of water (kg)  =   1.000e-01
                 Total alkalinity (eq/kg)  =   1.217e-09
                         Temperature (°C)  =  25.00
                  Electrical balance (eq)  =  -1.217e-10
 Percent error, 100*(Cat-|An|)/(Cat+|An|)  =  -0.60
                               Iterations  =  16
                                  Total H  = 1.110124e+01
                                  Total O  = 5.550622e+00

----------------------------Distribution of species----------------------------

                                               Log       Log       Log    mole V
   Species          Molality    Activity  Molality  Activity     Gamma   cm³/mol

   OH-             1.012e-07   1.012e-07    -6.995    -6.995    -0.000     -4.14
   H+              1.000e-07   1.000e-07    -7.000    -7.000    -0.000      0.00
   H2O             5.551e+01   9.999e-01     1.744    -0.000     0.000     18.07
H(0)          1.228e-14
   H2              6.138e-15   6.138e-15   -14.212   -14.212     0.000     28.61
O(0)          0.000e+00
   O2              0.000e+00   0.000e+00   -63.956   -63.956     0.000     30.40
Pce           7.520e-04
   Pce             7.520e-04   7.520e-04    -3.124    -3.124     0.000     (0)  
Tca           3.660e-03
   Tca             3.660e-03   3.660e-03    -2.437    -2.437     0.000     (0)  

------------------------------Saturation indices-------------------------------

  Phase               SI** log IAP   log K(298 K,   1 atm)

  H2(g)           -11.11    -14.21   -3.10  H2
  H2O(g)           -1.50     -0.00    1.50  H2O
  O2(g)           -61.06    -63.96   -2.89  O2
  Pce_lq           -0.20     -3.12   -2.92  Pce
  Tca_lq           -0.43     -2.44   -2.01  Tca

**For a gas, SI = log10(fugacity). Fugacity = pressure * phi / 1 atm.
  For ideal gases, phi = 1.

------------------
End of simulation.
------------------

------------------------------------
Reading input data for simulation 2.
------------------------------------

	USE Solution 1
	USE SOLID_SOLUTIONS 1
	SAVE SOLID_SOLUTIONS 1
	USER_GRAPH 
		-connect_simulations 
		-axis_titles "Extraction" "mg / L"
		-axis_scale x_axis 1 10 1
		-headings Extr_no Tca Pce
		10 graph_x sim_no-1
		20 graph_y tot("Tca")*133.4e3, tot("Pce")*165.8e3
	USE Solution 1
	USE SOLID_SOLUTIONS 1
	SAVE SOLID_SOLUTIONS 1
	END
-----------------------------------------
Beginning of batch-reaction calculations.
-----------------------------------------

Reaction step 1.

Using solution 1.	
Using solid solution assemblage 1.	

--------------------------------Solid solutions--------------------------------


Solid solution                Component        Moles  Delta moles   Mole fract

Pool                                        1.16e-03
                                 Tca_lq     4.34e-04    -3.66e-04     3.75e-01
                                 Pce_lq     7.25e-04    -7.52e-05     6.25e-01

-----------------------------Solution composition------------------------------

	Elements           Molality       Moles

	Pce               7.520e-04   7.520e-05
	Tca               3.660e-03   3.660e-04

----------------------------Description of solution----------------------------

                                       pH  =   7.000      Charge balance
                                       pe  =  -1.469      Adjusted to redox equilibrium
      Specific Conductance (µS/cm,  25°C)  = 0
                          Density (g/cm³)  =   0.99765
                               Volume (L)  =   0.10030
                        Activity of water  =   1.000
                 Ionic strength (mol/kgw)  =   1.006e-07
                       Mass of water (kg)  =   1.000e-01
                 Total alkalinity (eq/kg)  =   1.217e-09
                         Temperature (°C)  =  25.00
                  Electrical balance (eq)  =  -1.217e-10
 Percent error, 100*(Cat-|An|)/(Cat+|An|)  =  -0.60
                               Iterations  =  16
                                  Total H  = 1.110124e+01
                                  Total O  = 5.550622e+00

----------------------------Distribution of species----------------------------

                                               Log       Log       Log    mole V
   Species          Molality    Activity  Molality  Activity     Gamma   cm³/mol

   OH-             1.012e-07   1.012e-07    -6.995    -6.995    -0.000     -4.14
   H+              1.000e-07   1.000e-07    -7.000    -7.000    -0.000      0.00
   H2O             5.551e+01   9.999e-01     1.744    -0.000     0.000     18.07
H(0)          1.228e-14
   H2              6.138e-15   6.138e-15   -14.212   -14.212     0.000     28.61
O(0)          0.000e+00
   O2              0.000e+00   0.000e+00   -63.956   -63.956     0.000     30.40
Pce           7.520e-04
   Pce             7.520e-04   7.520e-04    -3.124    -3.124     0.000     (0)  
Tca           3.660e-03
   Tca             3.660e-03   3.660e-03    -2.437    -2.437     0.000     (0)  

------------------------------Saturation indices-------------------------------

  Phase               SI** log IAP   log K(298 K,   1 atm)

  H2(g)           -11.11    -14.21   -3.10  H2
  H2O(g)           -1.50     -0.00    1.50  H2O
  O2(g)           -61.06    -63.96   -2.89  O2
  Pce_lq           -0.20     -3.12   -2.92  Pce
  Tca_lq           -0.43     -2.44   -2.01  Tca

**For a gas, SI = log10(fugacity). Fugacity = pressure * phi / 1 atm.
  For ideal gases, phi = 1.

------------------
End of simulation.
------------------

------------------------------------
Reading input data for simulation 3.
------------------------------------

	USE Solution 1
	USE SOLID_SOLUTIONS 1
	SAVE SOLID_SOLUTIONS 1
	END
-----------------------------------------
Beginning of batch-reaction calculations.
-----------------------------------------

Reaction step 1.

Using solution 1.	
Using solid solution assemblage 1.	Solid solution assemblage after simulation 2

--------------------------------Solid solutions--------------------------------


Solid solution                Component        Moles  Delta moles   Mole fract

Pool                                        8.33e-04
                                 Tca_lq     2.00e-04    -2.34e-04     2.40e-01
                                 Pce_lq     6.33e-04    -9.14e-05     7.60e-01

-----------------------------Solution composition------------------------------

	Elements           Molality       Moles

	Pce               9.140e-04   9.140e-05
	Tca               2.343e-03   2.343e-04

----------------------------Description of solution----------------------------

                                       pH  =   7.000      Charge balance
                                       pe  =  -1.469      Adjusted to redox equilibrium
      Specific Conductance (µS/cm,  25°C)  = 0
                          Density (g/cm³)  =   0.99751
                               Volume (L)  =   0.10030
                        Activity of water  =   1.000
                 Ionic strength (mol/kgw)  =   1.006e-07
                       Mass of water (kg)  =   1.000e-01
                 Total alkalinity (eq/kg)  =   1.217e-09
                         Temperature (°C)  =  25.00
                  Electrical balance (eq)  =  -1.217e-10
 Percent error, 100*(Cat-|An|)/(Cat+|An|)  =  -0.60
                               Iterations  =  17
                                  Total H  = 1.110124e+01
                                  Total O  = 5.550622e+00

----------------------------Distribution of species----------------------------

                                               Log       Log       Log    mole V
   Species          Molality    Activity  Molality  Activity     Gamma   cm³/mol

   OH-             1.013e-07   1.012e-07    -6.995    -6.995    -0.000     -4.14
   H+              1.000e-07   1.000e-07    -7.000    -7.000    -0.000      0.00
   H2O             5.551e+01   9.999e-01     1.744    -0.000     0.000     18.07
H(0)          1.228e-14
   H2              6.138e-15   6.138e-15   -14.212   -14.212     0.000     28.61
O(0)          0.000e+00
   O2              0.000e+00   0.000e+00   -63.956   -63.956     0.000     30.40
Pce           9.140e-04
   Pce             9.140e-04   9.140e-04    -3.039    -3.039     0.000     (0)  
Tca           2.343e-03
   Tca             2.343e-03   2.343e-03    -2.630    -2.630     0.000     (0)  

------------------------------Saturation indices-------------------------------

  Phase               SI** log IAP   log K(298 K,   1 atm)

  H2(g)           -11.11    -14.21   -3.10  H2
  H2O(g)           -1.50     -0.00    1.50  H2O
  O2(g)           -61.06    -63.96   -2.89  O2
  Pce_lq           -0.12     -3.04   -2.92  Pce
  Tca_lq           -0.62     -2.63   -2.01  Tca

**For a gas, SI = log10(fugacity). Fugacity = pressure * phi / 1 atm.
  For ideal gases, phi = 1.

------------------
End of simulation.
------------------

------------------------------------
Reading input data for simulation 4.
------------------------------------

	USE Solution 1
	USE SOLID_SOLUTIONS 1
	SAVE SOLID_SOLUTIONS 1
	END
-----------------------------------------
Beginning of batch-reaction calculations.
-----------------------------------------

Reaction step 1.

Using solution 1.	
Using solid solution assemblage 1.	Solid solution assemblage after simulation 3

--------------------------------Solid solutions--------------------------------


Solid solution                Component        Moles  Delta moles   Mole fract

Pool                                        6.05e-04
                                 Tca_lq     7.63e-05    -1.23e-04     1.26e-01
                                 Pce_lq     5.28e-04    -1.05e-04     8.74e-01

-----------------------------Solution composition------------------------------

	Elements           Molality       Moles

	Pce               1.050e-03   1.050e-04
	Tca               1.234e-03   1.234e-04

----------------------------Description of solution----------------------------

                                       pH  =   7.000      Charge balance
                                       pe  =  -1.469      Adjusted to redox equilibrium
      Specific Conductance (µS/cm,  25°C)  = 0
                          Density (g/cm³)  =   0.99738
                               Volume (L)  =   0.10030
                        Activity of water  =   1.000
                 Ionic strength (mol/kgw)  =   1.006e-07
                       Mass of water (kg)  =   1.000e-01
                 Total alkalinity (eq/kg)  =   1.217e-09
                         Temperature (°C)  =  25.00
                  Electrical balance (eq)  =  -1.217e-10
 Percent error, 100*(Cat-|An|)/(Cat+|An|)  =  -0.60
                               Iterations  =  19
                                  Total H  = 1.110124e+01
                                  Total O  = 5.550622e+00

----------------------------Distribution of species----------------------------

                                               Log       Log       Log    mole V
   Species          Molality    Activity  Molality  Activity     Gamma   cm³/mol

   OH-             1.013e-07   1.012e-07    -6.995    -6.995    -0.000     -4.14
   H+              1.000e-07   1.000e-07    -7.000    -7.000    -0.000      0.00
   H2O             5.551e+01   1.000e+00     1.744    -0.000     0.000     18.07
H(0)          1.228e-14
   H2              6.138e-15   6.138e-15   -14.212   -14.212     0.000     28.61
O(0)          0.000e+00
   O2              0.000e+00   0.000e+00   -63.956   -63.956     0.000     30.40
Pce           1.050e-03
   Pce             1.050e-03   1.050e-03    -2.979    -2.979     0.000     (0)  
Tca           1.234e-03
   Tca             1.234e-03   1.234e-03    -2.909    -2.909     0.000     (0)  

------------------------------Saturation indices-------------------------------

  Phase               SI** log IAP   log K(298 K,   1 atm)

  H2(g)           -11.11    -14.21   -3.10  H2
  H2O(g)           -1.50     -0.00    1.50  H2O
  O2(g)           -61.06    -63.96   -2.89  O2
  Pce_lq           -0.06     -2.98   -2.92  Pce
  Tca_lq           -0.90     -2.91   -2.01  Tca

**For a gas, SI = log10(fugacity). Fugacity = pressure * phi / 1 atm.
  For ideal gases, phi = 1.

------------------
End of simulation.
------------------

------------------------------------
Reading input data for simulation 5.
------------------------------------

	USE Solution 1
	USE SOLID_SOLUTIONS 1
	SAVE SOLID_SOLUTIONS 1
	END
-----------------------------------------
Beginning of batch-reaction calculations.
-----------------------------------------

Reaction step 1.

Using solution 1.	
Using solid solution assemblage 1.	Solid solution assemblage after simulation 4

--------------------------------Solid solutions--------------------------------


Solid solution                Component        Moles  Delta moles   Mole fract

Pool                                        4.38e-04
                                 Tca_lq     2.36e-05    -5.27e-05     5.39e-02
                                 Pce_lq     4.15e-04    -1.14e-04     9.46e-01

-----------------------------Solution composition------------------------------

	Elements           Molality       Moles

	Pce               1.137e-03   1.137e-04
	Tca               5.271e-04   5.271e-05

----------------------------Description of solution----------------------------

                                       pH  =   7.000      Charge balance
                                       pe  =  -1.469      Adjusted to redox equilibrium
      Specific Conductance (µS/cm,  25°C)  = 0
                          Density (g/cm³)  =   0.99730
                               Volume (L)  =   0.10030
                        Activity of water  =   1.000
                 Ionic strength (mol/kgw)  =   1.006e-07
                       Mass of water (kg)  =   1.000e-01
                 Total alkalinity (eq/kg)  =   1.217e-09
                         Temperature (°C)  =  25.00
                  Electrical balance (eq)  =  -1.217e-10
 Percent error, 100*(Cat-|An|)/(Cat+|An|)  =  -0.60
                               Iterations  =  21
                                  Total H  = 1.110124e+01
                                  Total O  = 5.550622e+00

----------------------------Distribution of species----------------------------

                                               Log       Log       Log    mole V
   Species          Molality    Activity  Molality  Activity     Gamma   cm³/mol

   OH-             1.013e-07   1.012e-07    -6.995    -6.995    -0.000     -4.14
   H+              1.000e-07   1.000e-07    -7.000    -7.000    -0.000      0.00
   H2O             5.551e+01   1.000e+00     1.744    -0.000     0.000     18.07
H(0)          1.228e-14
   H2              6.138e-15   6.138e-15   -14.212   -14.212     0.000     28.61
O(0)          0.000e+00
   O2              0.000e+00   0.000e+00   -63.956   -63.956     0.000     30.40
Pce           1.137e-03
   Pce             1.137e-03   1.137e-03    -2.944    -2.944     0.000     (0)  
Tca           5.271e-04
   Tca             5.271e-04   5.271e-04    -3.278    -3.278     0.000     (0)  

------------------------------Saturation indices-------------------------------

  Phase               SI** log IAP   log K(298 K,   1 atm)

  H2(g)           -11.11    -14.21   -3.10  H2
  H2O(g)           -1.50     -0.00    1.50  H2O
  O2(g)           -61.06    -63.96   -2.89  O2
  Pce_lq           -0.02     -2.94   -2.92  Pce
  Tca_lq           -1.27     -3.28   -2.01  Tca

**For a gas, SI = log10(fugacity). Fugacity = pressure * phi / 1 atm.
  For ideal gases, phi = 1.

------------------
End of simulation.
------------------

------------------------------------
Reading input data for simulation 6.
------------------------------------

	USE Solution 1
	USE SOLID_SOLUTIONS 1
	SAVE SOLID_SOLUTIONS 1
	END
-----------------------------------------
Beginning of batch-reaction calculations.
-----------------------------------------

Reaction step 1.

Using solution 1.	
Using solid solution assemblage 1.	Solid solution assemblage after simulation 5

--------------------------------Solid solutions--------------------------------


Solid solution                Component        Moles  Delta moles   Mole fract

Pool                                        3.02e-04
                                 Tca_lq     5.58e-06    -1.81e-05     1.85e-02
                                 Pce_lq     2.97e-04    -1.18e-04     9.82e-01

-----------------------------Solution composition------------------------------

	Elements           Molality       Moles

	Pce               1.180e-03   1.180e-04
	Tca               1.805e-04   1.805e-05

----------------------------Description of solution----------------------------

                                       pH  =   7.000      Charge balance
                                       pe  =  -1.469      Adjusted to redox equilibrium
      Specific Conductance (µS/cm,  25°C)  = 0
                          Density (g/cm³)  =   0.99726
                               Volume (L)  =   0.10030
                        Activity of water  =   1.000
                 Ionic strength (mol/kgw)  =   1.006e-07
                       Mass of water (kg)  =   1.000e-01
                 Total alkalinity (eq/kg)  =   1.217e-09
                         Temperature (°C)  =  25.00
                  Electrical balance (eq)  =  -1.217e-10
 Percent error, 100*(Cat-|An|)/(Cat+|An|)  =  -0.60
                               Iterations  =  23
                                  Total H  = 1.110124e+01
                                  Total O  = 5.550622e+00

----------------------------Distribution of species----------------------------

                                               Log       Log       Log    mole V
   Species          Molality    Activity  Molality  Activity     Gamma   cm³/mol

   OH-             1.013e-07   1.012e-07    -6.995    -6.995    -0.000     -4.14
   H+              1.000e-07   1.000e-07    -7.000    -7.000    -0.000      0.00
   H2O             5.551e+01   1.000e+00     1.744    -0.000     0.000     18.07
H(0)          1.228e-14
   H2              6.138e-15   6.138e-15   -14.212   -14.212     0.000     28.61
O(0)          0.000e+00
   O2              0.000e+00   0.000e+00   -63.956   -63.956     0.000     30.40
Pce           1.180e-03
   Pce             1.180e-03   1.180e-03    -2.928    -2.928     0.000     (0)  
Tca           1.805e-04
   Tca             1.805e-04   1.805e-04    -3.743    -3.743     0.000     (0)  

------------------------------Saturation indices-------------------------------

  Phase               SI** log IAP   log K(298 K,   1 atm)

  H2(g)           -11.11    -14.21   -3.10  H2
  H2O(g)           -1.50     -0.00    1.50  H2O
  O2(g)           -61.06    -63.96   -2.89  O2
  Pce_lq           -0.01     -2.93   -2.92  Pce
  Tca_lq           -1.73     -3.74   -2.01  Tca

**For a gas, SI = log10(fugacity). Fugacity = pressure * phi / 1 atm.
  For ideal gases, phi = 1.

------------------
End of simulation.
------------------

------------------------------------
Reading input data for simulation 7.
------------------------------------

	USE Solution 1
	USE SOLID_SOLUTIONS 1
	SAVE SOLID_SOLUTIONS 1
	END
-----------------------------------------
Beginning of batch-reaction calculations.
-----------------------------------------

Reaction step 1.

Using solution 1.	
Using solid solution assemblage 1.	Solid solution assemblage after simulation 6

--------------------------------Solid solutions--------------------------------


Solid solution                Component        Moles  Delta moles   Mole fract

Pool                                        1.78e-04
                                 Tca_lq     8.59e-07    -4.72e-06     4.83e-03
                                 Pce_lq     1.77e-04    -1.20e-04     9.95e-01

-----------------------------Solution composition------------------------------

	Elements           Molality       Moles

	Pce               1.196e-03   1.196e-04
	Tca               4.723e-05   4.723e-06

----------------------------Description of solution----------------------------

                                       pH  =   7.000      Charge balance
                                       pe  =  -1.469      Adjusted to redox equilibrium
      Specific Conductance (µS/cm,  25°C)  = 0
                          Density (g/cm³)  =   0.99725
                               Volume (L)  =   0.10030
                        Activity of water  =   1.000
                 Ionic strength (mol/kgw)  =   1.006e-07
                       Mass of water (kg)  =   1.000e-01
                 Total alkalinity (eq/kg)  =   1.217e-09
                         Temperature (°C)  =  25.00
                  Electrical balance (eq)  =  -1.217e-10
 Percent error, 100*(Cat-|An|)/(Cat+|An|)  =  -0.60
                               Iterations  =  27
                                  Total H  = 1.110124e+01
                                  Total O  = 5.550622e+00

----------------------------Distribution of species----------------------------

                                               Log       Log       Log    mole V
   Species          Molality    Activity  Molality  Activity     Gamma   cm³/mol

   OH-             1.013e-07   1.012e-07    -6.995    -6.995    -0.000     -4.14
   H+              1.000e-07   1.000e-07    -7.000    -7.000    -0.000      0.00
   H2O             5.551e+01   1.000e+00     1.744    -0.000     0.000     18.07
H(0)          1.228e-14
   H2              6.138e-15   6.138e-15   -14.212   -14.212     0.000     28.61
O(0)          0.000e+00
   O2              0.000e+00   0.000e+00   -63.956   -63.956     0.000     30.40
Pce           1.196e-03
   Pce             1.196e-03   1.196e-03    -2.922    -2.922     0.000     (0)  
Tca           4.723e-05
   Tca             4.723e-05   4.723e-05    -4.326    -4.326     0.000     (0)  

------------------------------Saturation indices-------------------------------

  Phase               SI** log IAP   log K(298 K,   1 atm)

  H2(g)           -11.11    -14.21   -3.10  H2
  H2O(g)           -1.50     -0.00    1.50  H2O
  O2(g)           -61.06    -63.96   -2.89  O2
  Pce_lq           -0.00     -2.92   -2.92  Pce
  Tca_lq           -2.32     -4.33   -2.01  Tca

**For a gas, SI = log10(fugacity). Fugacity = pressure * phi / 1 atm.
  For ideal gases, phi = 1.

------------------
End of simulation.
------------------

------------------------------------
Reading input data for simulation 8.
------------------------------------

	USE Solution 1
	USE SOLID_SOLUTIONS 1
	SAVE SOLID_SOLUTIONS 1
	END
-----------------------------------------
Beginning of batch-reaction calculations.
-----------------------------------------

Reaction step 1.

Using solution 1.	
Using solid solution assemblage 1.	Solid solution assemblage after simulation 7

--------------------------------Solid solutions--------------------------------


Solid solution                Component        Moles  Delta moles   Mole fract

Pool                                        5.69e-05
                                 Tca_lq     4.73e-08    -8.12e-07     8.31e-04
                                 Pce_lq     5.68e-05    -1.20e-04     9.99e-01

-----------------------------Solution composition------------------------------

	Elements           Molality       Moles

	Pce               1.201e-03   1.201e-04
	Tca               8.122e-06   8.122e-07

----------------------------Description of solution----------------------------

                                       pH  =   7.000      Charge balance
                                       pe  =  -1.469      Adjusted to redox equilibrium
      Specific Conductance (µS/cm,  25°C)  = 0
                          Density (g/cm³)  =   0.99724
                               Volume (L)  =   0.10030
                        Activity of water  =   1.000
                 Ionic strength (mol/kgw)  =   1.006e-07
                       Mass of water (kg)  =   1.000e-01
                 Total alkalinity (eq/kg)  =   1.217e-09
                         Temperature (°C)  =  25.00
                  Electrical balance (eq)  =  -1.217e-10
 Percent error, 100*(Cat-|An|)/(Cat+|An|)  =  -0.60
                               Iterations  =  36
                                  Total H  = 1.110124e+01
                                  Total O  = 5.550622e+00

----------------------------Distribution of species----------------------------

                                               Log       Log       Log    mole V
   Species          Molality    Activity  Molality  Activity     Gamma   cm³/mol

   OH-             1.013e-07   1.012e-07    -6.995    -6.995    -0.000     -4.14
   H+              1.000e-07   1.000e-07    -7.000    -7.000    -0.000      0.00
   H2O             5.551e+01   1.000e+00     1.744    -0.000     0.000     18.07
H(0)          1.228e-14
   H2              6.138e-15   6.138e-15   -14.212   -14.212     0.000     28.61
O(0)          0.000e+00
   O2              0.000e+00   0.000e+00   -63.956   -63.956     0.000     30.40
Pce           1.201e-03
   Pce             1.201e-03   1.201e-03    -2.920    -2.920     0.000     (0)  
Tca           8.122e-06
   Tca             8.122e-06   8.122e-06    -5.090    -5.090     0.000     (0)  

------------------------------Saturation indices-------------------------------

  Phase               SI** log IAP   log K(298 K,   1 atm)

  H2(g)           -11.11    -14.21   -3.10  H2
  H2O(g)           -1.50     -0.00    1.50  H2O
  O2(g)           -61.06    -63.96   -2.89  O2
  Pce_lq           -0.00     -2.92   -2.92  Pce
  Tca_lq           -3.08     -5.09   -2.01  Tca

**For a gas, SI = log10(fugacity). Fugacity = pressure * phi / 1 atm.
  For ideal gases, phi = 1.

------------------
End of simulation.
------------------

------------------------------------
Reading input data for simulation 9.
------------------------------------

	USE Solution 1
	USE SOLID_SOLUTIONS 1
	SAVE SOLID_SOLUTIONS 1
	END
-----------------------------------------
Beginning of batch-reaction calculations.
-----------------------------------------

Reaction step 1.

WARNING: Maximum iterations exceeded, 100

WARNING: Numerical method failed with this set of convergence parameters.

WARNING: Trying smaller step size, pe step size 10, 5 ... 

Using solution 1.	
Using solid solution assemblage 1.	Solid solution assemblage after simulation 8

--------------------------------Solid solutions--------------------------------


Solid solution                Component        Moles  Delta moles   Mole fract

Pool                                        0.00e+00
                                 Tca_lq     0.00e+00    -4.73e-08     0.00e+00
                                 Pce_lq     0.00e+00    -5.68e-05     0.00e+00

-----------------------------Solution composition------------------------------

	Elements           Molality       Moles

	Pce               5.683e-04   5.683e-05
	Tca               4.727e-07   4.727e-08

----------------------------Description of solution----------------------------

                                       pH  =   7.000      Charge balance
                                       pe  =  -1.469      Adjusted to redox equilibrium
      Specific Conductance (µS/cm,  25°C)  = 0
                          Density (g/cm³)  =   0.99714
                               Volume (L)  =   0.10030
                        Activity of water  =   1.000
                 Ionic strength (mol/kgw)  =   1.006e-07
                       Mass of water (kg)  =   1.000e-01
                 Total alkalinity (eq/kg)  =   1.217e-09
                         Temperature (°C)  =  25.00
                  Electrical balance (eq)  =  -1.217e-10
 Percent error, 100*(Cat-|An|)/(Cat+|An|)  =  -0.60
                               Iterations  = 133 (234 overall)
                                  Total H  = 1.110124e+01
                                  Total O  = 5.550622e+00

----------------------------Distribution of species----------------------------

                                               Log       Log       Log    mole V
   Species          Molality    Activity  Molality  Activity     Gamma   cm³/mol

   OH-             1.013e-07   1.012e-07    -6.995    -6.995    -0.000     -4.14
   H+              1.000e-07   1.000e-07    -7.000    -7.000    -0.000      0.00
   H2O             5.551e+01   1.000e+00     1.744    -0.000     0.000     18.07
H(0)          1.228e-14
   H2              6.138e-15   6.138e-15   -14.212   -14.212     0.000     28.61
O(0)          0.000e+00
   O2              0.000e+00   0.000e+00   -63.956   -63.956     0.000     30.40
Pce           5.683e-04
   Pce             5.683e-04   5.683e-04    -3.245    -3.245     0.000     (0)  
Tca           4.727e-07
   Tca             4.727e-07   4.727e-07    -6.325    -6.325     0.000     (0)  

------------------------------Saturation indices-------------------------------

  Phase               SI** log IAP   log K(298 K,   1 atm)

  H2(g)           -11.11    -14.21   -3.10  H2
  H2O(g)           -1.50     -0.00    1.50  H2O
  O2(g)           -61.06    -63.96   -2.89  O2
  Pce_lq           -0.33     -3.25   -2.92  Pce
  Tca_lq           -4.32     -6.33   -2.01  Tca

**For a gas, SI = log10(fugacity). Fugacity = pressure * phi / 1 atm.
  For ideal gases, phi = 1.

------------------
End of simulation.
------------------

-------------------------------------
Reading input data for simulation 10.
-------------------------------------

	USE Solution 1
	USE SOLID_SOLUTIONS 1
	SAVE SOLID_SOLUTIONS 1
	END
-----------------------------------------
Beginning of batch-reaction calculations.
-----------------------------------------

Reaction step 1.

Using solution 1.	
Using solid solution assemblage 1.	Solid solution assemblage after simulation 9

--------------------------------Solid solutions--------------------------------


Solid solution                Component        Moles  Delta moles   Mole fract

Pool                                        0.00e+00
                                 Tca_lq     0.00e+00    -4.16e-20     0.00e+00
                                 Pce_lq     0.00e+00    -8.61e-16     0.00e+00

-----------------------------Solution composition------------------------------

	Elements           Molality       Moles

	Pce               8.608e-15   8.608e-16
	Tca               4.164e-19   4.164e-20

----------------------------Description of solution----------------------------

                                       pH  =   7.000      Charge balance
                                       pe  =  -1.802      Adjusted to redox equilibrium
      Specific Conductance (µS/cm,  25°C)  = 0
                          Density (g/cm³)  =   0.99704
                               Volume (L)  =   0.10030
                        Activity of water  =   1.000
                 Ionic strength (mol/kgw)  =   1.006e-07
                       Mass of water (kg)  =   1.000e-01
                 Total alkalinity (eq/kg)  =   1.217e-09
                         Temperature (°C)  =  25.00
                  Electrical balance (eq)  =  -1.217e-10
 Percent error, 100*(Cat-|An|)/(Cat+|An|)  =  -0.60
                               Iterations  =   7
                                  Total H  = 1.110124e+01
                                  Total O  = 5.550622e+00

----------------------------Distribution of species----------------------------

                                               Log       Log       Log    mole V
   Species          Molality    Activity  Molality  Activity     Gamma   cm³/mol

   OH-             1.013e-07   1.012e-07    -6.995    -6.995    -0.000     -4.14
   H+              1.000e-07   1.000e-07    -7.000    -7.000    -0.000      0.00
   H2O             5.551e+01   1.000e+00     1.744    -0.000     0.000     18.07
H(0)          5.681e-14
   H2              2.840e-14   2.840e-14   -13.547   -13.547     0.000     28.61
O(0)          0.000e+00
   O2              0.000e+00   0.000e+00   -65.287   -65.287     0.000     30.40
Pce           8.608e-15
   Pce             8.608e-15   8.608e-15   -14.065   -14.065     0.000     (0)  
Tca           4.164e-19
   Tca             4.164e-19   4.164e-19   -18.380   -18.380     0.000     (0)  

------------------------------Saturation indices-------------------------------

  Phase               SI** log IAP   log K(298 K,   1 atm)

  H2(g)           -10.45    -13.55   -3.10  H2
  H2O(g)           -1.50     -0.00    1.50  H2O
  O2(g)           -62.39    -65.29   -2.89  O2
  Pce_lq          -11.15    -14.07   -2.92  Pce
  Tca_lq          -16.37    -18.38   -2.01  Tca

**For a gas, SI = log10(fugacity). Fugacity = pressure * phi / 1 atm.
  For ideal gases, phi = 1.

------------------
End of simulation.
------------------

-------------------------------------
Reading input data for simulation 11.
-------------------------------------

	USE Solution 1
	USE SOLID_SOLUTIONS 1
	SAVE SOLID_SOLUTIONS 1
	END
-----------------------------------------
Beginning of batch-reaction calculations.
-----------------------------------------

Reaction step 1.

WARNING: Element Tca is contained in solid solution Tca_lq (which has 0.0 mass),
but is not in solution or other phases.
WARNING: Element in phase, Tca_lq, is not in model.
WARNING: Element in phase, Pce_lq, is not in model.
Using solution 1.	
Using solid solution assemblage 1.	Solid solution assemblage after simulation 10

--------------------------------Solid solutions--------------------------------


Solid solution                Component        Moles  Delta moles   Mole fract

Pool                                        0.00e+00
                                 Tca_lq     0.00e+00    -1.00e-27     0.00e+00
                                 Pce_lq     0.00e+00    -1.00e-27     0.00e+00

-----------------------------Solution composition------------------------------

	Elements           Molality       Moles

	Pure water     

----------------------------Description of solution----------------------------

                                       pH  =   7.000      Charge balance
                                       pe  =  -1.802      Adjusted to redox equilibrium
      Specific Conductance (µS/cm,  25°C)  = 0
                          Density (g/cm³)  =   0.99704
                               Volume (L)  =   0.10030
                        Activity of water  =   1.000
                 Ionic strength (mol/kgw)  =   1.006e-07
                       Mass of water (kg)  =   1.000e-01
                 Total alkalinity (eq/kg)  =   1.217e-09
                         Temperature (°C)  =  25.00
                  Electrical balance (eq)  =  -1.217e-10
 Percent error, 100*(Cat-|An|)/(Cat+|An|)  =  -0.60
                               Iterations  =   7
                                  Total H  = 1.110124e+01
                                  Total O  = 5.550622e+00

----------------------------Distribution of species----------------------------

                                               Log       Log       Log    mole V
   Species          Molality    Activity  Molality  Activity     Gamma   cm³/mol

   OH-             1.013e-07   1.012e-07    -6.995    -6.995    -0.000     -4.14
   H+              1.000e-07   1.000e-07    -7.000    -7.000    -0.000      0.00
   H2O             5.551e+01   1.000e+00     1.744    -0.000     0.000     18.07
H(0)          5.681e-14
   H2              2.840e-14   2.840e-14   -13.547   -13.547     0.000     28.61
O(0)          0.000e+00
   O2              0.000e+00   0.000e+00   -65.287   -65.287     0.000     30.40

------------------------------Saturation indices-------------------------------

  Phase               SI** log IAP   log K(298 K,   1 atm)

  H2(g)           -10.45    -13.55   -3.10  H2
  H2O(g)           -1.50     -0.00    1.50  H2O
  O2(g)           -62.39    -65.29   -2.89  O2

**For a gas, SI = log10(fugacity). Fugacity = pressure * phi / 1 atm.
  For ideal gases, phi = 1.

------------------
End of simulation.
------------------

-------------------------------------
Reading input data for simulation 12.
-------------------------------------

-------------------------------
End of Run after 1.356 Seconds.
-------------------------------

