   Input file: C:\Users\Eirik\Desktop\phreeqc-3.6.2-15100-x64\bin\JPBTEX_solution.phr
  Output file: C:\Users\Eirik\Desktop\phreeqc-3.6.2-15100-x64\bin\JPBTEX_solution.phr.out
Database file: C:\Users\Eirik\Desktop\phreeqc-3.6.2-15100-x64\database\phreeqc.dat

------------------
Reading data base.
------------------

	SOLUTION_MASTER_SPECIES
	SOLUTION_SPECIES
	PHASES
	EXCHANGE_MASTER_SPECIES
	EXCHANGE_SPECIES
	SURFACE_MASTER_SPECIES
	SURFACE_SPECIES
	RATES
	END
------------------------------------
Reading input data for simulation 1.
------------------------------------

	SOLUTION_MASTER_SPECIES
		Naph Naph 0 Naph 128.174  	# Naphtalene
		Tolu Tolu 0 Tolu 92.141  	# Toluene
		Ndecane	Ndecane 0 Ndecane 142	# Decane
	SOLUTION_SPECIES
		Naph = Naph
			log_k 0
		Tolu = Tolu
			log_k 0
		Ndecane = Ndecane
			log_k 0
	PHASES
		Naph_lq
		Naph = Naph
			log_k -3.62	# 31.6 mg/L
		Tolu_lq
		Tolu = Tolu
			log_k -2.25	# 515 mg/L
		Ndecane_lq
		Ndecane = Ndecane	# 0.052 mg/L
			log_k -6.43	
	SOLID_SOLUTIONS 1
		Pool
		component Naph_lq 0.031e-4
		component Tolu_lq 0.116e-4
		component Ndecane_lq 5.634e-4
	SOLUTION 1
		water 0.1
	END
-------------------------------------------
Beginning of initial solution calculations.
-------------------------------------------

Initial solution 1.	

-----------------------------Solution composition------------------------------

	Elements           Molality       Moles

	Pure water     

----------------------------Description of solution----------------------------

                                       pH  =   7.000    
                                       pe  =   4.000    
      Specific Conductance (µS/cm,  25°C)  = 0
                          Density (g/cm³)  =   0.99704
                               Volume (L)  =   0.10030
                        Activity of water  =   1.000
                 Ionic strength (mol/kgw)  =   1.007e-07
                       Mass of water (kg)  =   1.000e-01
                 Total alkalinity (eq/kg)  =   1.217e-09
                         Temperature (°C)  =  25.00
                  Electrical balance (eq)  =  -1.217e-10
 Percent error, 100*(Cat-|An|)/(Cat+|An|)  =  -0.60
                               Iterations  =   0
                                  Total H  = 1.110124e+01
                                  Total O  = 5.550622e+00

----------------------------Distribution of species----------------------------

                                               Log       Log       Log    mole V
   Species          Molality    Activity  Molality  Activity     Gamma   cm³/mol

   OH-             1.013e-07   1.012e-07    -6.995    -6.995    -0.000     -4.14
   H+              1.001e-07   1.000e-07    -7.000    -7.000    -0.000      0.00
   H2O             5.551e+01   1.000e+00     1.744     0.000     0.000     18.07
H(0)          1.416e-25
   H2              7.079e-26   7.079e-26   -25.150   -25.150     0.000     28.61
O(0)          0.000e+00
   O2              0.000e+00   0.000e+00   -42.080   -42.080     0.000     30.40

------------------------------Saturation indices-------------------------------

  Phase               SI** log IAP   log K(298 K,   1 atm)

  H2(g)           -22.05    -25.15   -3.10  H2
  H2O(g)           -1.50      0.00    1.50  H2O
  O2(g)           -39.19    -42.08   -2.89  O2

**For a gas, SI = log10(fugacity). Fugacity = pressure * phi / 1 atm.
  For ideal gases, phi = 1.

-----------------------------------------
Beginning of batch-reaction calculations.
-----------------------------------------

Reaction step 1.

Using solution 1.	
Using solid solution assemblage 1.	

--------------------------------Solid solutions--------------------------------


Solid solution                Component        Moles  Delta moles   Mole fract

Pool                                        5.72e-04
                                Naph_lq     2.98e-06    -1.25e-07     5.20e-03
                                Tolu_lq     5.85e-06    -5.75e-06     1.02e-02
                             Ndecane_lq     5.63e-04    -3.66e-08     9.85e-01

-----------------------------Solution composition------------------------------

	Elements           Molality       Moles

	Naph              1.247e-06   1.247e-07
	Ndecane           3.658e-07   3.658e-08
	Tolu              5.750e-05   5.750e-06

----------------------------Description of solution----------------------------

                                       pH  =   7.000      Charge balance
                                       pe  =  -1.469      Adjusted to redox equilibrium
      Specific Conductance (µS/cm,  25°C)  = 0
                          Density (g/cm³)  =   0.99705
                               Volume (L)  =   0.10030
                        Activity of water  =   1.000
                 Ionic strength (mol/kgw)  =   1.006e-07
                       Mass of water (kg)  =   1.000e-01
                 Total alkalinity (eq/kg)  =   1.217e-09
                         Temperature (°C)  =  25.00
                  Electrical balance (eq)  =  -1.217e-10
 Percent error, 100*(Cat-|An|)/(Cat+|An|)  =  -0.60
                               Iterations  =  16
                                  Total H  = 1.110124e+01
                                  Total O  = 5.550622e+00

----------------------------Distribution of species----------------------------

                                               Log       Log       Log    mole V
   Species          Molality    Activity  Molality  Activity     Gamma   cm³/mol

   OH-             1.013e-07   1.012e-07    -6.995    -6.995    -0.000     -4.14
   H+              1.000e-07   1.000e-07    -7.000    -7.000    -0.000      0.00
   H2O             5.551e+01   1.000e+00     1.744    -0.000     0.000     18.07
H(0)          1.228e-14
   H2              6.138e-15   6.138e-15   -14.212   -14.212     0.000     28.61
Naph          1.247e-06
   Naph            1.247e-06   1.247e-06    -5.904    -5.904     0.000     (0)  
Ndecane       3.658e-07
   Ndecane         3.658e-07   3.658e-07    -6.437    -6.437     0.000     (0)  
O(0)          0.000e+00
   O2              0.000e+00   0.000e+00   -63.956   -63.956     0.000     30.40
Tolu          5.750e-05
   Tolu            5.750e-05   5.750e-05    -4.240    -4.240     0.000     (0)  

------------------------------Saturation indices-------------------------------

  Phase               SI** log IAP   log K(298 K,   1 atm)

  H2(g)           -11.11    -14.21   -3.10  H2
  H2O(g)           -1.50     -0.00    1.50  H2O
  Naph_lq          -2.28     -5.90   -3.62  Naph
  Ndecane_lq       -0.01     -6.44   -6.43  Ndecane
  O2(g)           -61.06    -63.96   -2.89  O2
  Tolu_lq          -1.99     -4.24   -2.25  Tolu

**For a gas, SI = log10(fugacity). Fugacity = pressure * phi / 1 atm.
  For ideal gases, phi = 1.

------------------
End of simulation.
------------------

------------------------------------
Reading input data for simulation 2.
------------------------------------

	USE solution 1
	USE solid_solutions 1
	SAVE solid_solutions 1      # the pool of chemicals after dissolution
	USER_GRAPH                  # plot the composition...
		-connect_simulations
		-axis_titles "Extraction" "mg / L"
		-axis_scale x_axis 1 50 1  
		-headings Extr_no Tolu Naph Decane
		-start
		10 graph_x sim_no - 1      
		20 graph_y tot("Tolu")*92.141e3
		30 graph_sy tot("Naph")*128.174e3, tot("Ndecane")*142e3
		-end
	END
-----------------------------------------
Beginning of batch-reaction calculations.
-----------------------------------------

Reaction step 1.

Using solution 1.	
Using solid solution assemblage 1.	

--------------------------------Solid solutions--------------------------------


Solid solution                Component        Moles  Delta moles   Mole fract

Pool                                        5.72e-04
                                Naph_lq     2.98e-06    -1.25e-07     5.20e-03
                                Tolu_lq     5.85e-06    -5.75e-06     1.02e-02
                             Ndecane_lq     5.63e-04    -3.66e-08     9.85e-01

-----------------------------Solution composition------------------------------

	Elements           Molality       Moles

	Naph              1.247e-06   1.247e-07
	Ndecane           3.658e-07   3.658e-08
	Tolu              5.750e-05   5.750e-06

----------------------------Description of solution----------------------------

                                       pH  =   7.000      Charge balance
                                       pe  =  -1.469      Adjusted to redox equilibrium
      Specific Conductance (µS/cm,  25°C)  = 0
                          Density (g/cm³)  =   0.99705
                               Volume (L)  =   0.10030
                        Activity of water  =   1.000
                 Ionic strength (mol/kgw)  =   1.006e-07
                       Mass of water (kg)  =   1.000e-01
                 Total alkalinity (eq/kg)  =   1.217e-09
                         Temperature (°C)  =  25.00
                  Electrical balance (eq)  =  -1.217e-10
 Percent error, 100*(Cat-|An|)/(Cat+|An|)  =  -0.60
                               Iterations  =  16
                                  Total H  = 1.110124e+01
                                  Total O  = 5.550622e+00

----------------------------Distribution of species----------------------------

                                               Log       Log       Log    mole V
   Species          Molality    Activity  Molality  Activity     Gamma   cm³/mol

   OH-             1.013e-07   1.012e-07    -6.995    -6.995    -0.000     -4.14
   H+              1.000e-07   1.000e-07    -7.000    -7.000    -0.000      0.00
   H2O             5.551e+01   1.000e+00     1.744    -0.000     0.000     18.07
H(0)          1.228e-14
   H2              6.138e-15   6.138e-15   -14.212   -14.212     0.000     28.61
Naph          1.247e-06
   Naph            1.247e-06   1.247e-06    -5.904    -5.904     0.000     (0)  
Ndecane       3.658e-07
   Ndecane         3.658e-07   3.658e-07    -6.437    -6.437     0.000     (0)  
O(0)          0.000e+00
   O2              0.000e+00   0.000e+00   -63.956   -63.956     0.000     30.40
Tolu          5.750e-05
   Tolu            5.750e-05   5.750e-05    -4.240    -4.240     0.000     (0)  

------------------------------Saturation indices-------------------------------

  Phase               SI** log IAP   log K(298 K,   1 atm)

  H2(g)           -11.11    -14.21   -3.10  H2
  H2O(g)           -1.50     -0.00    1.50  H2O
  Naph_lq          -2.28     -5.90   -3.62  Naph
  Ndecane_lq       -0.01     -6.44   -6.43  Ndecane
  O2(g)           -61.06    -63.96   -2.89  O2
  Tolu_lq          -1.99     -4.24   -2.25  Tolu

**For a gas, SI = log10(fugacity). Fugacity = pressure * phi / 1 atm.
  For ideal gases, phi = 1.

------------------
End of simulation.
------------------

------------------------------------
Reading input data for simulation 3.
------------------------------------

	USE solid_solutions 1
	 USE solution 1
	 SAVE solid_solutions 1
	END
-----------------------------------------
Beginning of batch-reaction calculations.
-----------------------------------------

Reaction step 1.

Using solution 1.	
Using solid solution assemblage 1.	Solid solution assemblage after simulation 2

--------------------------------Solid solutions--------------------------------


Solid solution                Component        Moles  Delta moles   Mole fract

Pool                                        5.69e-04
                                Naph_lq     2.85e-06    -1.20e-07     5.02e-03
                                Tolu_lq     2.94e-06    -2.91e-06     5.17e-03
                             Ndecane_lq     5.63e-04    -3.68e-08     9.90e-01

-----------------------------Solution composition------------------------------

	Elements           Molality       Moles

	Naph              1.203e-06   1.203e-07
	Ndecane           3.678e-07   3.678e-08
	Tolu              2.908e-05   2.908e-06

----------------------------Description of solution----------------------------

                                       pH  =   7.000      Charge balance
                                       pe  =  -1.469      Adjusted to redox equilibrium
      Specific Conductance (µS/cm,  25°C)  = 0
                          Density (g/cm³)  =   0.99705
                               Volume (L)  =   0.10030
                        Activity of water  =   1.000
                 Ionic strength (mol/kgw)  =   1.006e-07
                       Mass of water (kg)  =   1.000e-01
                 Total alkalinity (eq/kg)  =   1.217e-09
                         Temperature (°C)  =  25.00
                  Electrical balance (eq)  =  -1.217e-10
 Percent error, 100*(Cat-|An|)/(Cat+|An|)  =  -0.60
                               Iterations  =  16
                                  Total H  = 1.110124e+01
                                  Total O  = 5.550622e+00

----------------------------Distribution of species----------------------------

                                               Log       Log       Log    mole V
   Species          Molality    Activity  Molality  Activity     Gamma   cm³/mol

   OH-             1.013e-07   1.012e-07    -6.995    -6.995    -0.000     -4.14
   H+              1.000e-07   1.000e-07    -7.000    -7.000    -0.000      0.00
   H2O             5.551e+01   1.000e+00     1.744    -0.000     0.000     18.07
H(0)          1.228e-14
   H2              6.138e-15   6.138e-15   -14.212   -14.212     0.000     28.61
Naph          1.203e-06
   Naph            1.203e-06   1.203e-06    -5.920    -5.920     0.000     (0)  
Ndecane       3.678e-07
   Ndecane         3.678e-07   3.678e-07    -6.434    -6.434     0.000     (0)  
O(0)          0.000e+00
   O2              0.000e+00   0.000e+00   -63.956   -63.956     0.000     30.40
Tolu          2.908e-05
   Tolu            2.908e-05   2.908e-05    -4.536    -4.536     0.000     (0)  

------------------------------Saturation indices-------------------------------

  Phase               SI** log IAP   log K(298 K,   1 atm)

  H2(g)           -11.11    -14.21   -3.10  H2
  H2O(g)           -1.50     -0.00    1.50  H2O
  Naph_lq          -2.30     -5.92   -3.62  Naph
  Ndecane_lq       -0.00     -6.43   -6.43  Ndecane
  O2(g)           -61.06    -63.96   -2.89  O2
  Tolu_lq          -2.29     -4.54   -2.25  Tolu

**For a gas, SI = log10(fugacity). Fugacity = pressure * phi / 1 atm.
  For ideal gases, phi = 1.

------------------
End of simulation.
------------------

------------------------------------
Reading input data for simulation 4.
------------------------------------

	USE solid_solutions 1
	 USE solution 1
	 SAVE solid_solutions 1
	END
-----------------------------------------
Beginning of batch-reaction calculations.
-----------------------------------------

Reaction step 1.

Using solution 1.	
Using solid solution assemblage 1.	Solid solution assemblage after simulation 3

--------------------------------Solid solutions--------------------------------


Solid solution                Component        Moles  Delta moles   Mole fract

Pool                                        5.68e-04
                                Naph_lq     2.74e-06    -1.16e-07     4.83e-03
                                Tolu_lq     1.48e-06    -1.46e-06     2.60e-03
                             Ndecane_lq     5.63e-04    -3.69e-08     9.93e-01

-----------------------------Solution composition------------------------------

	Elements           Molality       Moles

	Naph              1.158e-06   1.158e-07
	Ndecane           3.688e-07   3.688e-08
	Tolu              1.465e-05   1.465e-06

----------------------------Description of solution----------------------------

                                       pH  =   7.000      Charge balance
                                       pe  =  -1.469      Adjusted to redox equilibrium
      Specific Conductance (µS/cm,  25°C)  = 0
                          Density (g/cm³)  =   0.99704
                               Volume (L)  =   0.10030
                        Activity of water  =   1.000
                 Ionic strength (mol/kgw)  =   1.006e-07
                       Mass of water (kg)  =   1.000e-01
                 Total alkalinity (eq/kg)  =   1.217e-09
                         Temperature (°C)  =  25.00
                  Electrical balance (eq)  =  -1.217e-10
 Percent error, 100*(Cat-|An|)/(Cat+|An|)  =  -0.60
                               Iterations  =  16
                                  Total H  = 1.110124e+01
                                  Total O  = 5.550622e+00

----------------------------Distribution of species----------------------------

                                               Log       Log       Log    mole V
   Species          Molality    Activity  Molality  Activity     Gamma   cm³/mol

   OH-             1.013e-07   1.012e-07    -6.995    -6.995    -0.000     -4.14
   H+              1.000e-07   1.000e-07    -7.000    -7.000    -0.000      0.00
   H2O             5.551e+01   1.000e+00     1.744    -0.000     0.000     18.07
H(0)          1.228e-14
   H2              6.138e-15   6.138e-15   -14.212   -14.212     0.000     28.61
Naph          1.158e-06
   Naph            1.158e-06   1.158e-06    -5.936    -5.936     0.000     (0)  
Ndecane       3.688e-07
   Ndecane         3.688e-07   3.688e-07    -6.433    -6.433     0.000     (0)  
O(0)          0.000e+00
   O2              0.000e+00   0.000e+00   -63.956   -63.956     0.000     30.40
Tolu          1.465e-05
   Tolu            1.465e-05   1.465e-05    -4.834    -4.834     0.000     (0)  

------------------------------Saturation indices-------------------------------

  Phase               SI** log IAP   log K(298 K,   1 atm)

  H2(g)           -11.11    -14.21   -3.10  H2
  H2O(g)           -1.50     -0.00    1.50  H2O
  Naph_lq          -2.32     -5.94   -3.62  Naph
  Ndecane_lq       -0.00     -6.43   -6.43  Ndecane
  O2(g)           -61.06    -63.96   -2.89  O2
  Tolu_lq          -2.58     -4.83   -2.25  Tolu

**For a gas, SI = log10(fugacity). Fugacity = pressure * phi / 1 atm.
  For ideal gases, phi = 1.

------------------
End of simulation.
------------------

------------------------------------
Reading input data for simulation 5.
------------------------------------

	USE solid_solutions 1
	 USE solution 1
	 SAVE solid_solutions 1
	END
-----------------------------------------
Beginning of batch-reaction calculations.
-----------------------------------------

Reaction step 1.

Using solution 1.	
Using solid solution assemblage 1.	Solid solution assemblage after simulation 4

--------------------------------Solid solutions--------------------------------


Solid solution                Component        Moles  Delta moles   Mole fract

Pool                                        5.67e-04
                                Naph_lq     2.63e-06    -1.11e-07     4.64e-03
                                Tolu_lq     7.42e-07    -7.36e-07     1.31e-03
                             Ndecane_lq     5.63e-04    -3.69e-08     9.94e-01

-----------------------------Solution composition------------------------------

	Elements           Molality       Moles

	Naph              1.113e-06   1.113e-07
	Ndecane           3.693e-07   3.693e-08
	Tolu              7.362e-06   7.362e-07

----------------------------Description of solution----------------------------

                                       pH  =   7.000      Charge balance
                                       pe  =  -1.469      Adjusted to redox equilibrium
      Specific Conductance (µS/cm,  25°C)  = 0
                          Density (g/cm³)  =   0.99704
                               Volume (L)  =   0.10030
                        Activity of water  =   1.000
                 Ionic strength (mol/kgw)  =   1.006e-07
                       Mass of water (kg)  =   1.000e-01
                 Total alkalinity (eq/kg)  =   1.217e-09
                         Temperature (°C)  =  25.00
                  Electrical balance (eq)  =  -1.217e-10
 Percent error, 100*(Cat-|An|)/(Cat+|An|)  =  -0.60
                               Iterations  =  15
                                  Total H  = 1.110124e+01
                                  Total O  = 5.550622e+00

----------------------------Distribution of species----------------------------

                                               Log       Log       Log    mole V
   Species          Molality    Activity  Molality  Activity     Gamma   cm³/mol

   OH-             1.013e-07   1.012e-07    -6.995    -6.995    -0.000     -4.14
   H+              1.000e-07   1.000e-07    -7.000    -7.000    -0.000      0.00
   H2O             5.551e+01   1.000e+00     1.744    -0.000     0.000     18.07
H(0)          1.228e-14
   H2              6.138e-15   6.138e-15   -14.212   -14.212     0.000     28.61
Naph          1.113e-06
   Naph            1.113e-06   1.113e-06    -5.954    -5.954     0.000     (0)  
Ndecane       3.693e-07
   Ndecane         3.693e-07   3.693e-07    -6.433    -6.433     0.000     (0)  
O(0)          0.000e+00
   O2              0.000e+00   0.000e+00   -63.956   -63.956     0.000     30.40
Tolu          7.362e-06
   Tolu            7.362e-06   7.362e-06    -5.133    -5.133     0.000     (0)  

------------------------------Saturation indices-------------------------------

  Phase               SI** log IAP   log K(298 K,   1 atm)

  H2(g)           -11.11    -14.21   -3.10  H2
  H2O(g)           -1.50     -0.00    1.50  H2O
  Naph_lq          -2.33     -5.95   -3.62  Naph
  Ndecane_lq       -0.00     -6.43   -6.43  Ndecane
  O2(g)           -61.06    -63.96   -2.89  O2
  Tolu_lq          -2.88     -5.13   -2.25  Tolu

**For a gas, SI = log10(fugacity). Fugacity = pressure * phi / 1 atm.
  For ideal gases, phi = 1.

------------------
End of simulation.
------------------

------------------------------------
Reading input data for simulation 6.
------------------------------------

	USE solid_solutions 1
	 USE solution 1
	 SAVE solid_solutions 1
	END
-----------------------------------------
Beginning of batch-reaction calculations.
-----------------------------------------

Reaction step 1.

Using solution 1.	
Using solid solution assemblage 1.	Solid solution assemblage after simulation 5

--------------------------------Solid solutions--------------------------------


Solid solution                Component        Moles  Delta moles   Mole fract

Pool                                        5.66e-04
                                Naph_lq     2.52e-06    -1.07e-07     4.45e-03
                                Tolu_lq     3.72e-07    -3.70e-07     6.57e-04
                             Ndecane_lq     5.63e-04    -3.70e-08     9.95e-01

-----------------------------Solution composition------------------------------

	Elements           Molality       Moles

	Naph              1.068e-06   1.068e-07
	Ndecane           3.696e-07   3.696e-08
	Tolu              3.697e-06   3.697e-07

----------------------------Description of solution----------------------------

                                       pH  =   7.000      Charge balance
                                       pe  =  -1.469      Adjusted to redox equilibrium
      Specific Conductance (µS/cm,  25°C)  = 0
                          Density (g/cm³)  =   0.99704
                               Volume (L)  =   0.10030
                        Activity of water  =   1.000
                 Ionic strength (mol/kgw)  =   1.006e-07
                       Mass of water (kg)  =   1.000e-01
                 Total alkalinity (eq/kg)  =   1.217e-09
                         Temperature (°C)  =  25.00
                  Electrical balance (eq)  =  -1.217e-10
 Percent error, 100*(Cat-|An|)/(Cat+|An|)  =  -0.60
                               Iterations  =  15
                                  Total H  = 1.110124e+01
                                  Total O  = 5.550622e+00

----------------------------Distribution of species----------------------------

                                               Log       Log       Log    mole V
   Species          Molality    Activity  Molality  Activity     Gamma   cm³/mol

   OH-             1.013e-07   1.012e-07    -6.995    -6.995    -0.000     -4.14
   H+              1.000e-07   1.000e-07    -7.000    -7.000    -0.000      0.00
   H2O             5.551e+01   1.000e+00     1.744    -0.000     0.000     18.07
H(0)          1.228e-14
   H2              6.138e-15   6.138e-15   -14.212   -14.212     0.000     28.61
Naph          1.068e-06
   Naph            1.068e-06   1.068e-06    -5.971    -5.971     0.000     (0)  
Ndecane       3.696e-07
   Ndecane         3.696e-07   3.696e-07    -6.432    -6.432     0.000     (0)  
O(0)          0.000e+00
   O2              0.000e+00   0.000e+00   -63.956   -63.956     0.000     30.40
Tolu          3.697e-06
   Tolu            3.697e-06   3.697e-06    -5.432    -5.432     0.000     (0)  

------------------------------Saturation indices-------------------------------

  Phase               SI** log IAP   log K(298 K,   1 atm)

  H2(g)           -11.11    -14.21   -3.10  H2
  H2O(g)           -1.50     -0.00    1.50  H2O
  Naph_lq          -2.35     -5.97   -3.62  Naph
  Ndecane_lq       -0.00     -6.43   -6.43  Ndecane
  O2(g)           -61.06    -63.96   -2.89  O2
  Tolu_lq          -3.18     -5.43   -2.25  Tolu

**For a gas, SI = log10(fugacity). Fugacity = pressure * phi / 1 atm.
  For ideal gases, phi = 1.

------------------
End of simulation.
------------------

------------------------------------
Reading input data for simulation 7.
------------------------------------

	USE solid_solutions 1
	 USE solution 1
	 SAVE solid_solutions 1
	END
-----------------------------------------
Beginning of batch-reaction calculations.
-----------------------------------------

Reaction step 1.

Using solution 1.	
Using solid solution assemblage 1.	Solid solution assemblage after simulation 6

--------------------------------Solid solutions--------------------------------


Solid solution                Component        Moles  Delta moles   Mole fract

Pool                                        5.66e-04
                                Naph_lq     2.42e-06    -1.03e-07     4.27e-03
                                Tolu_lq     1.87e-07    -1.86e-07     3.30e-04
                             Ndecane_lq     5.63e-04    -3.70e-08     9.95e-01

-----------------------------Solution composition------------------------------

	Elements           Molality       Moles

	Naph              1.025e-06   1.025e-07
	Ndecane           3.698e-07   3.698e-08
	Tolu              1.855e-06   1.855e-07

----------------------------Description of solution----------------------------

                                       pH  =   7.000      Charge balance
                                       pe  =  -1.469      Adjusted to redox equilibrium
      Specific Conductance (µS/cm,  25°C)  = 0
                          Density (g/cm³)  =   0.99704
                               Volume (L)  =   0.10030
                        Activity of water  =   1.000
                 Ionic strength (mol/kgw)  =   1.006e-07
                       Mass of water (kg)  =   1.000e-01
                 Total alkalinity (eq/kg)  =   1.217e-09
                         Temperature (°C)  =  25.00
                  Electrical balance (eq)  =  -1.217e-10
 Percent error, 100*(Cat-|An|)/(Cat+|An|)  =  -0.60
                               Iterations  =  15
                                  Total H  = 1.110124e+01
                                  Total O  = 5.550622e+00

----------------------------Distribution of species----------------------------

                                               Log       Log       Log    mole V
   Species          Molality    Activity  Molality  Activity     Gamma   cm³/mol

   OH-             1.013e-07   1.012e-07    -6.995    -6.995    -0.000     -4.14
   H+              1.000e-07   1.000e-07    -7.000    -7.000    -0.000      0.00
   H2O             5.551e+01   1.000e+00     1.744    -0.000     0.000     18.07
H(0)          1.228e-14
   H2              6.138e-15   6.138e-15   -14.212   -14.212     0.000     28.61
Naph          1.025e-06
   Naph            1.025e-06   1.025e-06    -5.989    -5.989     0.000     (0)  
Ndecane       3.698e-07
   Ndecane         3.698e-07   3.698e-07    -6.432    -6.432     0.000     (0)  
O(0)          0.000e+00
   O2              0.000e+00   0.000e+00   -63.956   -63.956     0.000     30.40
Tolu          1.855e-06
   Tolu            1.855e-06   1.855e-06    -5.732    -5.732     0.000     (0)  

------------------------------Saturation indices-------------------------------

  Phase               SI** log IAP   log K(298 K,   1 atm)

  H2(g)           -11.11    -14.21   -3.10  H2
  H2O(g)           -1.50     -0.00    1.50  H2O
  Naph_lq          -2.37     -5.99   -3.62  Naph
  Ndecane_lq       -0.00     -6.43   -6.43  Ndecane
  O2(g)           -61.06    -63.96   -2.89  O2
  Tolu_lq          -3.48     -5.73   -2.25  Tolu

**For a gas, SI = log10(fugacity). Fugacity = pressure * phi / 1 atm.
  For ideal gases, phi = 1.

------------------
End of simulation.
------------------

------------------------------------
Reading input data for simulation 8.
------------------------------------

	USE solid_solutions 1
	 USE solution 1
	 SAVE solid_solutions 1
	END
-----------------------------------------
Beginning of batch-reaction calculations.
-----------------------------------------

Reaction step 1.

Using solution 1.	
Using solid solution assemblage 1.	Solid solution assemblage after simulation 7

--------------------------------Solid solutions--------------------------------


Solid solution                Component        Moles  Delta moles   Mole fract

Pool                                        5.66e-04
                                Naph_lq     2.32e-06    -9.84e-08     4.10e-03
                                Tolu_lq     9.36e-08    -9.31e-08     1.65e-04
                             Ndecane_lq     5.63e-04    -3.70e-08     9.96e-01

-----------------------------Solution composition------------------------------

	Elements           Molality       Moles

	Naph              9.841e-07   9.841e-08
	Ndecane           3.699e-07   3.699e-08
	Tolu              9.306e-07   9.306e-08

----------------------------Description of solution----------------------------

                                       pH  =   7.000      Charge balance
                                       pe  =  -1.469      Adjusted to redox equilibrium
      Specific Conductance (µS/cm,  25°C)  = 0
                          Density (g/cm³)  =   0.99704
                               Volume (L)  =   0.10030
                        Activity of water  =   1.000
                 Ionic strength (mol/kgw)  =   1.006e-07
                       Mass of water (kg)  =   1.000e-01
                 Total alkalinity (eq/kg)  =   1.217e-09
                         Temperature (°C)  =  25.00
                  Electrical balance (eq)  =  -1.217e-10
 Percent error, 100*(Cat-|An|)/(Cat+|An|)  =  -0.60
                               Iterations  =  15
                                  Total H  = 1.110124e+01
                                  Total O  = 5.550622e+00

----------------------------Distribution of species----------------------------

                                               Log       Log       Log    mole V
   Species          Molality    Activity  Molality  Activity     Gamma   cm³/mol

   OH-             1.013e-07   1.012e-07    -6.995    -6.995    -0.000     -4.14
   H+              1.000e-07   1.000e-07    -7.000    -7.000    -0.000      0.00
   H2O             5.551e+01   1.000e+00     1.744    -0.000     0.000     18.07
H(0)          1.228e-14
   H2              6.138e-15   6.138e-15   -14.212   -14.212     0.000     28.61
Naph          9.841e-07
   Naph            9.841e-07   9.841e-07    -6.007    -6.007     0.000     (0)  
Ndecane       3.699e-07
   Ndecane         3.699e-07   3.699e-07    -6.432    -6.432     0.000     (0)  
O(0)          0.000e+00
   O2              0.000e+00   0.000e+00   -63.956   -63.956     0.000     30.40
Tolu          9.306e-07
   Tolu            9.306e-07   9.306e-07    -6.031    -6.031     0.000     (0)  

------------------------------Saturation indices-------------------------------

  Phase               SI** log IAP   log K(298 K,   1 atm)

  H2(g)           -11.11    -14.21   -3.10  H2
  H2O(g)           -1.50     -0.00    1.50  H2O
  Naph_lq          -2.39     -6.01   -3.62  Naph
  Ndecane_lq       -0.00     -6.43   -6.43  Ndecane
  O2(g)           -61.06    -63.96   -2.89  O2
  Tolu_lq          -3.78     -6.03   -2.25  Tolu

**For a gas, SI = log10(fugacity). Fugacity = pressure * phi / 1 atm.
  For ideal gases, phi = 1.

------------------
End of simulation.
------------------

------------------------------------
Reading input data for simulation 9.
------------------------------------

	USE solid_solutions 1
	 USE solution 1
	 SAVE solid_solutions 1
	END
-----------------------------------------
Beginning of batch-reaction calculations.
-----------------------------------------

Reaction step 1.

Using solution 1.	
Using solid solution assemblage 1.	Solid solution assemblage after simulation 8

--------------------------------Solid solutions--------------------------------


Solid solution                Component        Moles  Delta moles   Mole fract

Pool                                        5.65e-04
                                Naph_lq     2.23e-06    -9.44e-08     3.94e-03
                                Tolu_lq     4.69e-08    -4.67e-08     8.30e-05
                             Ndecane_lq     5.63e-04    -3.70e-08     9.96e-01

-----------------------------Solution composition------------------------------

	Elements           Molality       Moles

	Naph              9.443e-07   9.443e-08
	Ndecane           3.700e-07   3.700e-08
	Tolu              4.667e-07   4.667e-08

----------------------------Description of solution----------------------------

                                       pH  =   7.000      Charge balance
                                       pe  =  -1.469      Adjusted to redox equilibrium
      Specific Conductance (µS/cm,  25°C)  = 0
                          Density (g/cm³)  =   0.99704
                               Volume (L)  =   0.10030
                        Activity of water  =   1.000
                 Ionic strength (mol/kgw)  =   1.006e-07
                       Mass of water (kg)  =   1.000e-01
                 Total alkalinity (eq/kg)  =   1.217e-09
                         Temperature (°C)  =  25.00
                  Electrical balance (eq)  =  -1.217e-10
 Percent error, 100*(Cat-|An|)/(Cat+|An|)  =  -0.60
                               Iterations  =  15
                                  Total H  = 1.110124e+01
                                  Total O  = 5.550622e+00

----------------------------Distribution of species----------------------------

                                               Log       Log       Log    mole V
   Species          Molality    Activity  Molality  Activity     Gamma   cm³/mol

   OH-             1.013e-07   1.012e-07    -6.995    -6.995    -0.000     -4.14
   H+              1.000e-07   1.000e-07    -7.000    -7.000    -0.000      0.00
   H2O             5.551e+01   1.000e+00     1.744    -0.000     0.000     18.07
H(0)          1.228e-14
   H2              6.138e-15   6.138e-15   -14.212   -14.212     0.000     28.61
Naph          9.443e-07
   Naph            9.443e-07   9.443e-07    -6.025    -6.025     0.000     (0)  
Ndecane       3.700e-07
   Ndecane         3.700e-07   3.700e-07    -6.432    -6.432     0.000     (0)  
O(0)          0.000e+00
   O2              0.000e+00   0.000e+00   -63.956   -63.956     0.000     30.40
Tolu          4.667e-07
   Tolu            4.667e-07   4.667e-07    -6.331    -6.331     0.000     (0)  

------------------------------Saturation indices-------------------------------

  Phase               SI** log IAP   log K(298 K,   1 atm)

  H2(g)           -11.11    -14.21   -3.10  H2
  H2O(g)           -1.50     -0.00    1.50  H2O
  Naph_lq          -2.40     -6.02   -3.62  Naph
  Ndecane_lq       -0.00     -6.43   -6.43  Ndecane
  O2(g)           -61.06    -63.96   -2.89  O2
  Tolu_lq          -4.08     -6.33   -2.25  Tolu

**For a gas, SI = log10(fugacity). Fugacity = pressure * phi / 1 atm.
  For ideal gases, phi = 1.

------------------
End of simulation.
------------------

-------------------------------------
Reading input data for simulation 10.
-------------------------------------

	USE solid_solutions 1
	 USE solution 1
	 SAVE solid_solutions 1
	END
-----------------------------------------
Beginning of batch-reaction calculations.
-----------------------------------------

Reaction step 1.

Using solution 1.	
Using solid solution assemblage 1.	Solid solution assemblage after simulation 9

--------------------------------Solid solutions--------------------------------


Solid solution                Component        Moles  Delta moles   Mole fract

Pool                                        5.65e-04
                                Naph_lq     2.14e-06    -9.06e-08     3.78e-03
                                Tolu_lq     2.35e-08    -2.34e-08     4.16e-05
                             Ndecane_lq     5.63e-04    -3.70e-08     9.96e-01

-----------------------------Solution composition------------------------------

	Elements           Molality       Moles

	Naph              9.061e-07   9.061e-08
	Ndecane           3.701e-07   3.701e-08
	Tolu              2.340e-07   2.340e-08

----------------------------Description of solution----------------------------

                                       pH  =   7.000      Charge balance
                                       pe  =  -1.469      Adjusted to redox equilibrium
      Specific Conductance (µS/cm,  25°C)  = 0
                          Density (g/cm³)  =   0.99704
                               Volume (L)  =   0.10030
                        Activity of water  =   1.000
                 Ionic strength (mol/kgw)  =   1.006e-07
                       Mass of water (kg)  =   1.000e-01
                 Total alkalinity (eq/kg)  =   1.217e-09
                         Temperature (°C)  =  25.00
                  Electrical balance (eq)  =  -1.217e-10
 Percent error, 100*(Cat-|An|)/(Cat+|An|)  =  -0.60
                               Iterations  =  15
                                  Total H  = 1.110124e+01
                                  Total O  = 5.550622e+00

----------------------------Distribution of species----------------------------

                                               Log       Log       Log    mole V
   Species          Molality    Activity  Molality  Activity     Gamma   cm³/mol

   OH-             1.013e-07   1.012e-07    -6.995    -6.995    -0.000     -4.14
   H+              1.000e-07   1.000e-07    -7.000    -7.000    -0.000      0.00
   H2O             5.551e+01   1.000e+00     1.744    -0.000     0.000     18.07
H(0)          1.228e-14
   H2              6.138e-15   6.138e-15   -14.212   -14.212     0.000     28.61
Naph          9.061e-07
   Naph            9.061e-07   9.061e-07    -6.043    -6.043     0.000     (0)  
Ndecane       3.701e-07
   Ndecane         3.701e-07   3.701e-07    -6.432    -6.432     0.000     (0)  
O(0)          0.000e+00
   O2              0.000e+00   0.000e+00   -63.956   -63.956     0.000     30.40
Tolu          2.340e-07
   Tolu            2.340e-07   2.340e-07    -6.631    -6.631     0.000     (0)  

------------------------------Saturation indices-------------------------------

  Phase               SI** log IAP   log K(298 K,   1 atm)

  H2(g)           -11.11    -14.21   -3.10  H2
  H2O(g)           -1.50     -0.00    1.50  H2O
  Naph_lq          -2.42     -6.04   -3.62  Naph
  Ndecane_lq       -0.00     -6.43   -6.43  Ndecane
  O2(g)           -61.06    -63.96   -2.89  O2
  Tolu_lq          -4.38     -6.63   -2.25  Tolu

**For a gas, SI = log10(fugacity). Fugacity = pressure * phi / 1 atm.
  For ideal gases, phi = 1.

------------------
End of simulation.
------------------

-------------------------------------
Reading input data for simulation 11.
-------------------------------------

	USE solid_solutions 1
	 USE solution 1
	 SAVE solid_solutions 1
	END
-----------------------------------------
Beginning of batch-reaction calculations.
-----------------------------------------

Reaction step 1.

Using solution 1.	
Using solid solution assemblage 1.	Solid solution assemblage after simulation 10

--------------------------------Solid solutions--------------------------------


Solid solution                Component        Moles  Delta moles   Mole fract

Pool                                        5.65e-04
                                Naph_lq     2.05e-06    -8.69e-08     3.62e-03
                                Tolu_lq     1.18e-08    -1.17e-08     2.09e-05
                             Ndecane_lq     5.63e-04    -3.70e-08     9.96e-01

-----------------------------Solution composition------------------------------

	Elements           Molality       Moles

	Naph              8.694e-07   8.694e-08
	Ndecane           3.702e-07   3.702e-08
	Tolu              1.173e-07   1.173e-08

----------------------------Description of solution----------------------------

                                       pH  =   7.000      Charge balance
                                       pe  =  -1.469      Adjusted to redox equilibrium
      Specific Conductance (µS/cm,  25°C)  = 0
                          Density (g/cm³)  =   0.99704
                               Volume (L)  =   0.10030
                        Activity of water  =   1.000
                 Ionic strength (mol/kgw)  =   1.006e-07
                       Mass of water (kg)  =   1.000e-01
                 Total alkalinity (eq/kg)  =   1.217e-09
                         Temperature (°C)  =  25.00
                  Electrical balance (eq)  =  -1.217e-10
 Percent error, 100*(Cat-|An|)/(Cat+|An|)  =  -0.60
                               Iterations  =  15
                                  Total H  = 1.110124e+01
                                  Total O  = 5.550622e+00

----------------------------Distribution of species----------------------------

                                               Log       Log       Log    mole V
   Species          Molality    Activity  Molality  Activity     Gamma   cm³/mol

   OH-             1.013e-07   1.012e-07    -6.995    -6.995    -0.000     -4.14
   H+              1.000e-07   1.000e-07    -7.000    -7.000    -0.000      0.00
   H2O             5.551e+01   1.000e+00     1.744    -0.000     0.000     18.07
H(0)          1.228e-14
   H2              6.138e-15   6.138e-15   -14.212   -14.212     0.000     28.61
Naph          8.694e-07
   Naph            8.694e-07   8.694e-07    -6.061    -6.061     0.000     (0)  
Ndecane       3.702e-07
   Ndecane         3.702e-07   3.702e-07    -6.432    -6.432     0.000     (0)  
O(0)          0.000e+00
   O2              0.000e+00   0.000e+00   -63.956   -63.956     0.000     30.40
Tolu          1.173e-07
   Tolu            1.173e-07   1.173e-07    -6.931    -6.931     0.000     (0)  

------------------------------Saturation indices-------------------------------

  Phase               SI** log IAP   log K(298 K,   1 atm)

  H2(g)           -11.11    -14.21   -3.10  H2
  H2O(g)           -1.50     -0.00    1.50  H2O
  Naph_lq          -2.44     -6.06   -3.62  Naph
  Ndecane_lq       -0.00     -6.43   -6.43  Ndecane
  O2(g)           -61.06    -63.96   -2.89  O2
  Tolu_lq          -4.68     -6.93   -2.25  Tolu

**For a gas, SI = log10(fugacity). Fugacity = pressure * phi / 1 atm.
  For ideal gases, phi = 1.

------------------
End of simulation.
------------------

-------------------------------------
Reading input data for simulation 12.
-------------------------------------

	USE solid_solutions 1
	 USE solution 1
	 SAVE solid_solutions 1
	END
-----------------------------------------
Beginning of batch-reaction calculations.
-----------------------------------------

Reaction step 1.

Using solution 1.	
Using solid solution assemblage 1.	Solid solution assemblage after simulation 11

--------------------------------Solid solutions--------------------------------


Solid solution                Component        Moles  Delta moles   Mole fract

Pool                                        5.65e-04
                                Naph_lq     1.96e-06    -8.34e-08     3.48e-03
                                Tolu_lq     5.91e-09    -5.88e-09     1.05e-05
                             Ndecane_lq     5.63e-04    -3.70e-08     9.97e-01

-----------------------------Solution composition------------------------------

	Elements           Molality       Moles

	Naph              8.342e-07   8.342e-08
	Ndecane           3.702e-07   3.702e-08
	Tolu              5.881e-08   5.881e-09

----------------------------Description of solution----------------------------

                                       pH  =   7.000      Charge balance
                                       pe  =  -1.469      Adjusted to redox equilibrium
      Specific Conductance (µS/cm,  25°C)  = 0
                          Density (g/cm³)  =   0.99704
                               Volume (L)  =   0.10030
                        Activity of water  =   1.000
                 Ionic strength (mol/kgw)  =   1.006e-07
                       Mass of water (kg)  =   1.000e-01
                 Total alkalinity (eq/kg)  =   1.217e-09
                         Temperature (°C)  =  25.00
                  Electrical balance (eq)  =  -1.217e-10
 Percent error, 100*(Cat-|An|)/(Cat+|An|)  =  -0.60
                               Iterations  =  14
                                  Total H  = 1.110124e+01
                                  Total O  = 5.550622e+00

----------------------------Distribution of species----------------------------

                                               Log       Log       Log    mole V
   Species          Molality    Activity  Molality  Activity     Gamma   cm³/mol

   OH-             1.013e-07   1.012e-07    -6.995    -6.995    -0.000     -4.14
   H+              1.000e-07   1.000e-07    -7.000    -7.000    -0.000      0.00
   H2O             5.551e+01   1.000e+00     1.744    -0.000     0.000     18.07
H(0)          1.228e-14
   H2              6.138e-15   6.138e-15   -14.212   -14.212     0.000     28.61
Naph          8.342e-07
   Naph            8.342e-07   8.342e-07    -6.079    -6.079     0.000     (0)  
Ndecane       3.702e-07
   Ndecane         3.702e-07   3.702e-07    -6.432    -6.432     0.000     (0)  
O(0)          0.000e+00
   O2              0.000e+00   0.000e+00   -63.956   -63.956     0.000     30.40
Tolu          5.881e-08
   Tolu            5.881e-08   5.881e-08    -7.231    -7.231     0.000     (0)  

------------------------------Saturation indices-------------------------------

  Phase               SI** log IAP   log K(298 K,   1 atm)

  H2(g)           -11.11    -14.21   -3.10  H2
  H2O(g)           -1.50     -0.00    1.50  H2O
  Naph_lq          -2.46     -6.08   -3.62  Naph
  Ndecane_lq       -0.00     -6.43   -6.43  Ndecane
  O2(g)           -61.06    -63.96   -2.89  O2
  Tolu_lq          -4.98     -7.23   -2.25  Tolu

**For a gas, SI = log10(fugacity). Fugacity = pressure * phi / 1 atm.
  For ideal gases, phi = 1.

------------------
End of simulation.
------------------

-------------------------------------
Reading input data for simulation 13.
-------------------------------------

	USE solid_solutions 1
	 USE solution 1
	 SAVE solid_solutions 1
	END
-----------------------------------------
Beginning of batch-reaction calculations.
-----------------------------------------

Reaction step 1.

Using solution 1.	
Using solid solution assemblage 1.	Solid solution assemblage after simulation 12

--------------------------------Solid solutions--------------------------------


Solid solution                Component        Moles  Delta moles   Mole fract

Pool                                        5.65e-04
                                Naph_lq     1.88e-06    -8.00e-08     3.34e-03
                                Tolu_lq     2.96e-09    -2.95e-09     5.24e-06
                             Ndecane_lq     5.63e-04    -3.70e-08     9.97e-01

-----------------------------Solution composition------------------------------

	Elements           Molality       Moles

	Naph              8.004e-07   8.004e-08
	Ndecane           3.703e-07   3.703e-08
	Tolu              2.948e-08   2.948e-09

----------------------------Description of solution----------------------------

                                       pH  =   7.000      Charge balance
                                       pe  =  -1.469      Adjusted to redox equilibrium
      Specific Conductance (µS/cm,  25°C)  = 0
                          Density (g/cm³)  =   0.99704
                               Volume (L)  =   0.10030
                        Activity of water  =   1.000
                 Ionic strength (mol/kgw)  =   1.006e-07
                       Mass of water (kg)  =   1.000e-01
                 Total alkalinity (eq/kg)  =   1.217e-09
                         Temperature (°C)  =  25.00
                  Electrical balance (eq)  =  -1.217e-10
 Percent error, 100*(Cat-|An|)/(Cat+|An|)  =  -0.60
                               Iterations  =  14
                                  Total H  = 1.110124e+01
                                  Total O  = 5.550622e+00

----------------------------Distribution of species----------------------------

                                               Log       Log       Log    mole V
   Species          Molality    Activity  Molality  Activity     Gamma   cm³/mol

   OH-             1.013e-07   1.012e-07    -6.995    -6.995    -0.000     -4.14
   H+              1.000e-07   1.000e-07    -7.000    -7.000    -0.000      0.00
   H2O             5.551e+01   1.000e+00     1.744    -0.000     0.000     18.07
H(0)          1.228e-14
   H2              6.138e-15   6.138e-15   -14.212   -14.212     0.000     28.61
Naph          8.004e-07
   Naph            8.004e-07   8.004e-07    -6.097    -6.097     0.000     (0)  
Ndecane       3.703e-07
   Ndecane         3.703e-07   3.703e-07    -6.431    -6.431     0.000     (0)  
O(0)          0.000e+00
   O2              0.000e+00   0.000e+00   -63.956   -63.956     0.000     30.40
Tolu          2.948e-08
   Tolu            2.948e-08   2.948e-08    -7.531    -7.531     0.000     (0)  

------------------------------Saturation indices-------------------------------

  Phase               SI** log IAP   log K(298 K,   1 atm)

  H2(g)           -11.11    -14.21   -3.10  H2
  H2O(g)           -1.50     -0.00    1.50  H2O
  Naph_lq          -2.48     -6.10   -3.62  Naph
  Ndecane_lq       -0.00     -6.43   -6.43  Ndecane
  O2(g)           -61.06    -63.96   -2.89  O2
  Tolu_lq          -5.28     -7.53   -2.25  Tolu

**For a gas, SI = log10(fugacity). Fugacity = pressure * phi / 1 atm.
  For ideal gases, phi = 1.

------------------
End of simulation.
------------------

-------------------------------------
Reading input data for simulation 14.
-------------------------------------

	USE solid_solutions 1
	 USE solution 1
	 SAVE solid_solutions 1
	END
-----------------------------------------
Beginning of batch-reaction calculations.
-----------------------------------------

Reaction step 1.

Using solution 1.	
Using solid solution assemblage 1.	Solid solution assemblage after simulation 13

--------------------------------Solid solutions--------------------------------


Solid solution                Component        Moles  Delta moles   Mole fract

Pool                                        5.65e-04
                                Naph_lq     1.81e-06    -7.68e-08     3.20e-03
                                Tolu_lq     1.48e-09    -1.48e-09     2.63e-06
                             Ndecane_lq     5.63e-04    -3.70e-08     9.97e-01

-----------------------------Solution composition------------------------------

	Elements           Molality       Moles

	Naph              7.679e-07   7.679e-08
	Ndecane           3.703e-07   3.703e-08
	Tolu              1.477e-08   1.477e-09

----------------------------Description of solution----------------------------

                                       pH  =   7.000      Charge balance
                                       pe  =  -1.469      Adjusted to redox equilibrium
      Specific Conductance (µS/cm,  25°C)  = 0
                          Density (g/cm³)  =   0.99704
                               Volume (L)  =   0.10030
                        Activity of water  =   1.000
                 Ionic strength (mol/kgw)  =   1.006e-07
                       Mass of water (kg)  =   1.000e-01
                 Total alkalinity (eq/kg)  =   1.217e-09
                         Temperature (°C)  =  25.00
                  Electrical balance (eq)  =  -1.217e-10
 Percent error, 100*(Cat-|An|)/(Cat+|An|)  =  -0.60
                               Iterations  =  13
                                  Total H  = 1.110124e+01
                                  Total O  = 5.550622e+00

----------------------------Distribution of species----------------------------

                                               Log       Log       Log    mole V
   Species          Molality    Activity  Molality  Activity     Gamma   cm³/mol

   OH-             1.013e-07   1.012e-07    -6.995    -6.995    -0.000     -4.14
   H+              1.000e-07   1.000e-07    -7.000    -7.000    -0.000      0.00
   H2O             5.551e+01   1.000e+00     1.744    -0.000     0.000     18.07
H(0)          1.228e-14
   H2              6.138e-15   6.138e-15   -14.212   -14.212     0.000     28.61
Naph          7.679e-07
   Naph            7.679e-07   7.679e-07    -6.115    -6.115     0.000     (0)  
Ndecane       3.703e-07
   Ndecane         3.703e-07   3.703e-07    -6.431    -6.431     0.000     (0)  
O(0)          0.000e+00
   O2              0.000e+00   0.000e+00   -63.956   -63.956     0.000     30.40
Tolu          1.477e-08
   Tolu            1.477e-08   1.477e-08    -7.831    -7.831     0.000     (0)  

------------------------------Saturation indices-------------------------------

  Phase               SI** log IAP   log K(298 K,   1 atm)

  H2(g)           -11.11    -14.21   -3.10  H2
  H2O(g)           -1.50     -0.00    1.50  H2O
  Naph_lq          -2.49     -6.11   -3.62  Naph
  Ndecane_lq       -0.00     -6.43   -6.43  Ndecane
  O2(g)           -61.06    -63.96   -2.89  O2
  Tolu_lq          -5.58     -7.83   -2.25  Tolu

**For a gas, SI = log10(fugacity). Fugacity = pressure * phi / 1 atm.
  For ideal gases, phi = 1.

------------------
End of simulation.
------------------

-------------------------------------
Reading input data for simulation 15.
-------------------------------------

	USE solid_solutions 1
	 USE solution 1
	 SAVE solid_solutions 1
	END
-----------------------------------------
Beginning of batch-reaction calculations.
-----------------------------------------

Reaction step 1.

Using solution 1.	
Using solid solution assemblage 1.	Solid solution assemblage after simulation 14

--------------------------------Solid solutions--------------------------------


Solid solution                Component        Moles  Delta moles   Mole fract

Pool                                        5.65e-04
                                Naph_lq     1.73e-06    -7.37e-08     3.07e-03
                                Tolu_lq     7.43e-10    -7.40e-10     1.32e-06
                             Ndecane_lq     5.63e-04    -3.70e-08     9.97e-01

-----------------------------Solution composition------------------------------

	Elements           Molality       Moles

	Naph              7.368e-07   7.368e-08
	Ndecane           3.704e-07   3.704e-08
	Tolu              7.402e-09   7.402e-10

----------------------------Description of solution----------------------------

                                       pH  =   7.000      Charge balance
                                       pe  =  -1.469      Adjusted to redox equilibrium
      Specific Conductance (µS/cm,  25°C)  = 0
                          Density (g/cm³)  =   0.99704
                               Volume (L)  =   0.10030
                        Activity of water  =   1.000
                 Ionic strength (mol/kgw)  =   1.006e-07
                       Mass of water (kg)  =   1.000e-01
                 Total alkalinity (eq/kg)  =   1.217e-09
                         Temperature (°C)  =  25.00
                  Electrical balance (eq)  =  -1.217e-10
 Percent error, 100*(Cat-|An|)/(Cat+|An|)  =  -0.60
                               Iterations  =  12
                                  Total H  = 1.110124e+01
                                  Total O  = 5.550622e+00

----------------------------Distribution of species----------------------------

                                               Log       Log       Log    mole V
   Species          Molality    Activity  Molality  Activity     Gamma   cm³/mol

   OH-             1.013e-07   1.012e-07    -6.995    -6.995    -0.000     -4.14
   H+              1.000e-07   1.000e-07    -7.000    -7.000    -0.000      0.00
   H2O             5.551e+01   1.000e+00     1.744    -0.000     0.000     18.07
H(0)          1.228e-14
   H2              6.138e-15   6.138e-15   -14.212   -14.212     0.000     28.61
Naph          7.368e-07
   Naph            7.368e-07   7.368e-07    -6.133    -6.133     0.000     (0)  
Ndecane       3.704e-07
   Ndecane         3.704e-07   3.704e-07    -6.431    -6.431     0.000     (0)  
O(0)          0.000e+00
   O2              0.000e+00   0.000e+00   -63.956   -63.956     0.000     30.40
Tolu          7.402e-09
   Tolu            7.402e-09   7.402e-09    -8.131    -8.131     0.000     (0)  

------------------------------Saturation indices-------------------------------

  Phase               SI** log IAP   log K(298 K,   1 atm)

  H2(g)           -11.11    -14.21   -3.10  H2
  H2O(g)           -1.50     -0.00    1.50  H2O
  Naph_lq          -2.51     -6.13   -3.62  Naph
  Ndecane_lq       -0.00     -6.43   -6.43  Ndecane
  O2(g)           -61.06    -63.96   -2.89  O2
  Tolu_lq          -5.88     -8.13   -2.25  Tolu

**For a gas, SI = log10(fugacity). Fugacity = pressure * phi / 1 atm.
  For ideal gases, phi = 1.

------------------
End of simulation.
------------------

-------------------------------------
Reading input data for simulation 16.
-------------------------------------

	USE solid_solutions 1
	 USE solution 1
	 SAVE solid_solutions 1
	END
-----------------------------------------
Beginning of batch-reaction calculations.
-----------------------------------------

Reaction step 1.

Using solution 1.	
Using solid solution assemblage 1.	Solid solution assemblage after simulation 15

--------------------------------Solid solutions--------------------------------


Solid solution                Component        Moles  Delta moles   Mole fract

Pool                                        5.65e-04
                                Naph_lq     1.66e-06    -7.07e-08     2.95e-03
                                Tolu_lq     3.72e-10    -3.71e-10     6.60e-07
                             Ndecane_lq     5.63e-04    -3.70e-08     9.97e-01

-----------------------------Solution composition------------------------------

	Elements           Molality       Moles

	Naph              7.069e-07   7.069e-08
	Ndecane           3.704e-07   3.704e-08
	Tolu              3.709e-09   3.709e-10

----------------------------Description of solution----------------------------

                                       pH  =   7.000      Charge balance
                                       pe  =  -1.469      Adjusted to redox equilibrium
      Specific Conductance (µS/cm,  25°C)  = 0
                          Density (g/cm³)  =   0.99704
                               Volume (L)  =   0.10030
                        Activity of water  =   1.000
                 Ionic strength (mol/kgw)  =   1.006e-07
                       Mass of water (kg)  =   1.000e-01
                 Total alkalinity (eq/kg)  =   1.217e-09
                         Temperature (°C)  =  25.00
                  Electrical balance (eq)  =  -1.217e-10
 Percent error, 100*(Cat-|An|)/(Cat+|An|)  =  -0.60
                               Iterations  =  11
                                  Total H  = 1.110124e+01
                                  Total O  = 5.550622e+00

----------------------------Distribution of species----------------------------

                                               Log       Log       Log    mole V
   Species          Molality    Activity  Molality  Activity     Gamma   cm³/mol

   OH-             1.013e-07   1.012e-07    -6.995    -6.995    -0.000     -4.14
   H+              1.000e-07   1.000e-07    -7.000    -7.000    -0.000      0.00
   H2O             5.551e+01   1.000e+00     1.744    -0.000     0.000     18.07
H(0)          1.228e-14
   H2              6.139e-15   6.139e-15   -14.212   -14.212     0.000     28.61
Naph          7.069e-07
   Naph            7.069e-07   7.069e-07    -6.151    -6.151     0.000     (0)  
Ndecane       3.704e-07
   Ndecane         3.704e-07   3.704e-07    -6.431    -6.431     0.000     (0)  
O(0)          0.000e+00
   O2              0.000e+00   0.000e+00   -63.956   -63.956     0.000     30.40
Tolu          3.709e-09
   Tolu            3.709e-09   3.709e-09    -8.431    -8.431     0.000     (0)  

------------------------------Saturation indices-------------------------------

  Phase               SI** log IAP   log K(298 K,   1 atm)

  H2(g)           -11.11    -14.21   -3.10  H2
  H2O(g)           -1.50     -0.00    1.50  H2O
  Naph_lq          -2.53     -6.15   -3.62  Naph
  Ndecane_lq       -0.00     -6.43   -6.43  Ndecane
  O2(g)           -61.06    -63.96   -2.89  O2
  Tolu_lq          -6.18     -8.43   -2.25  Tolu

**For a gas, SI = log10(fugacity). Fugacity = pressure * phi / 1 atm.
  For ideal gases, phi = 1.

------------------
End of simulation.
------------------

-------------------------------------
Reading input data for simulation 17.
-------------------------------------

	USE solid_solutions 1
	 USE solution 1
	 SAVE solid_solutions 1
	END
-----------------------------------------
Beginning of batch-reaction calculations.
-----------------------------------------

Reaction step 1.

Using solution 1.	
Using solid solution assemblage 1.	Solid solution assemblage after simulation 16

--------------------------------Solid solutions--------------------------------


Solid solution                Component        Moles  Delta moles   Mole fract

Pool                                        5.64e-04
                                Naph_lq     1.60e-06    -6.78e-08     2.83e-03
                                Tolu_lq     1.87e-10    -1.86e-10     3.30e-07
                             Ndecane_lq     5.63e-04    -3.70e-08     9.97e-01

-----------------------------Solution composition------------------------------

	Elements           Molality       Moles

	Naph              6.782e-07   6.782e-08
	Ndecane           3.705e-07   3.705e-08
	Tolu              1.858e-09   1.858e-10

----------------------------Description of solution----------------------------

                                       pH  =   7.000      Charge balance
                                       pe  =  -1.474      Adjusted to redox equilibrium
      Specific Conductance (µS/cm,  25°C)  = 0
                          Density (g/cm³)  =   0.99704
                               Volume (L)  =   0.10030
                        Activity of water  =   1.000
                 Ionic strength (mol/kgw)  =   1.006e-07
                       Mass of water (kg)  =   1.000e-01
                 Total alkalinity (eq/kg)  =   1.217e-09
                         Temperature (°C)  =  25.00
                  Electrical balance (eq)  =  -1.217e-10
 Percent error, 100*(Cat-|An|)/(Cat+|An|)  =  -0.60
                               Iterations  =  10
                                  Total H  = 1.110124e+01
                                  Total O  = 5.550622e+00

----------------------------Distribution of species----------------------------

                                               Log       Log       Log    mole V
   Species          Molality    Activity  Molality  Activity     Gamma   cm³/mol

   OH-             1.013e-07   1.012e-07    -6.995    -6.995    -0.000     -4.14
   H+              1.000e-07   1.000e-07    -7.000    -7.000    -0.000      0.00
   H2O             5.551e+01   1.000e+00     1.744    -0.000     0.000     18.07
H(0)          1.256e-14
   H2              6.279e-15   6.279e-15   -14.202   -14.202     0.000     28.61
Naph          6.782e-07
   Naph            6.782e-07   6.782e-07    -6.169    -6.169     0.000     (0)  
Ndecane       3.705e-07
   Ndecane         3.705e-07   3.705e-07    -6.431    -6.431     0.000     (0)  
O(0)          0.000e+00
   O2              0.000e+00   0.000e+00   -63.976   -63.976     0.000     30.40
Tolu          1.858e-09
   Tolu            1.858e-09   1.858e-09    -8.731    -8.731     0.000     (0)  

------------------------------Saturation indices-------------------------------

  Phase               SI** log IAP   log K(298 K,   1 atm)

  H2(g)           -11.10    -14.20   -3.10  H2
  H2O(g)           -1.50     -0.00    1.50  H2O
  Naph_lq          -2.55     -6.17   -3.62  Naph
  Ndecane_lq       -0.00     -6.43   -6.43  Ndecane
  O2(g)           -61.08    -63.98   -2.89  O2
  Tolu_lq          -6.48     -8.73   -2.25  Tolu

**For a gas, SI = log10(fugacity). Fugacity = pressure * phi / 1 atm.
  For ideal gases, phi = 1.

------------------
End of simulation.
------------------

-------------------------------------
Reading input data for simulation 18.
-------------------------------------

	USE solid_solutions 1
	 USE solution 1
	 SAVE solid_solutions 1
	END
-----------------------------------------
Beginning of batch-reaction calculations.
-----------------------------------------

Reaction step 1.

Using solution 1.	
Using solid solution assemblage 1.	Solid solution assemblage after simulation 17

--------------------------------Solid solutions--------------------------------


Solid solution                Component        Moles  Delta moles   Mole fract

Pool                                        5.64e-04
                                Naph_lq     1.53e-06    -6.51e-08     2.71e-03
                                Tolu_lq     9.34e-11    -9.31e-11     1.66e-07
                             Ndecane_lq     5.63e-04    -3.71e-08     9.97e-01

-----------------------------Solution composition------------------------------

	Elements           Molality       Moles

	Naph              6.507e-07   6.507e-08
	Ndecane           3.705e-07   3.705e-08
	Tolu              9.309e-10   9.309e-11

----------------------------Description of solution----------------------------

                                       pH  =   7.000      Charge balance
                                       pe  =  -1.474      Adjusted to redox equilibrium
      Specific Conductance (µS/cm,  25°C)  = 0
                          Density (g/cm³)  =   0.99704
                               Volume (L)  =   0.10030
                        Activity of water  =   1.000
                 Ionic strength (mol/kgw)  =   1.006e-07
                       Mass of water (kg)  =   1.000e-01
                 Total alkalinity (eq/kg)  =   1.217e-09
                         Temperature (°C)  =  25.00
                  Electrical balance (eq)  =  -1.217e-10
 Percent error, 100*(Cat-|An|)/(Cat+|An|)  =  -0.60
                               Iterations  =  10
                                  Total H  = 1.110124e+01
                                  Total O  = 5.550622e+00

----------------------------Distribution of species----------------------------

                                               Log       Log       Log    mole V
   Species          Molality    Activity  Molality  Activity     Gamma   cm³/mol

   OH-             1.013e-07   1.012e-07    -6.995    -6.995    -0.000     -4.14
   H+              1.000e-07   1.000e-07    -7.000    -7.000    -0.000      0.00
   H2O             5.551e+01   1.000e+00     1.744    -0.000     0.000     18.07
H(0)          1.256e-14
   H2              6.279e-15   6.279e-15   -14.202   -14.202     0.000     28.61
Naph          6.507e-07
   Naph            6.507e-07   6.507e-07    -6.187    -6.187     0.000     (0)  
Ndecane       3.705e-07
   Ndecane         3.705e-07   3.705e-07    -6.431    -6.431     0.000     (0)  
O(0)          0.000e+00
   O2              0.000e+00   0.000e+00   -63.976   -63.976     0.000     30.40
Tolu          9.309e-10
   Tolu            9.309e-10   9.309e-10    -9.031    -9.031     0.000     (0)  

------------------------------Saturation indices-------------------------------

  Phase               SI** log IAP   log K(298 K,   1 atm)

  H2(g)           -11.10    -14.20   -3.10  H2
  H2O(g)           -1.50     -0.00    1.50  H2O
  Naph_lq          -2.57     -6.19   -3.62  Naph
  Ndecane_lq       -0.00     -6.43   -6.43  Ndecane
  O2(g)           -61.08    -63.98   -2.89  O2
  Tolu_lq          -6.78     -9.03   -2.25  Tolu

**For a gas, SI = log10(fugacity). Fugacity = pressure * phi / 1 atm.
  For ideal gases, phi = 1.

------------------
End of simulation.
------------------

-------------------------------------
Reading input data for simulation 19.
-------------------------------------

	USE solid_solutions 1
	 USE solution 1
	 SAVE solid_solutions 1
	END
-----------------------------------------
Beginning of batch-reaction calculations.
-----------------------------------------

Reaction step 1.

Using solution 1.	
Using solid solution assemblage 1.	Solid solution assemblage after simulation 18

--------------------------------Solid solutions--------------------------------


Solid solution                Component        Moles  Delta moles   Mole fract

Pool                                        5.64e-04
                                Naph_lq     1.47e-06    -6.24e-08     2.60e-03
                                Tolu_lq     4.68e-11    -4.66e-11     8.29e-08
                             Ndecane_lq     5.63e-04    -3.71e-08     9.97e-01

-----------------------------Solution composition------------------------------

	Elements           Molality       Moles

	Naph              6.242e-07   6.242e-08
	Ndecane           3.706e-07   3.706e-08
	Tolu              4.663e-10   4.663e-11

----------------------------Description of solution----------------------------

                                       pH  =   7.000      Charge balance
                                       pe  =  -1.469      Adjusted to redox equilibrium
      Specific Conductance (µS/cm,  25°C)  = 0
                          Density (g/cm³)  =   0.99704
                               Volume (L)  =   0.10030
                        Activity of water  =   1.000
                 Ionic strength (mol/kgw)  =   1.006e-07
                       Mass of water (kg)  =   1.000e-01
                 Total alkalinity (eq/kg)  =   1.217e-09
                         Temperature (°C)  =  25.00
                  Electrical balance (eq)  =  -1.217e-10
 Percent error, 100*(Cat-|An|)/(Cat+|An|)  =  -0.60
                               Iterations  =  21
                                  Total H  = 1.110124e+01
                                  Total O  = 5.550622e+00

----------------------------Distribution of species----------------------------

                                               Log       Log       Log    mole V
   Species          Molality    Activity  Molality  Activity     Gamma   cm³/mol

   OH-             1.013e-07   1.012e-07    -6.995    -6.995    -0.000     -4.14
   H+              1.000e-07   1.000e-07    -7.000    -7.000    -0.000      0.00
   H2O             5.551e+01   1.000e+00     1.744    -0.000     0.000     18.07
H(0)          1.228e-14
   H2              6.138e-15   6.138e-15   -14.212   -14.212     0.000     28.61
Naph          6.242e-07
   Naph            6.242e-07   6.242e-07    -6.205    -6.205     0.000     (0)  
Ndecane       3.706e-07
   Ndecane         3.706e-07   3.706e-07    -6.431    -6.431     0.000     (0)  
O(0)          0.000e+00
   O2              0.000e+00   0.000e+00   -63.956   -63.956     0.000     30.40
Tolu          4.663e-10
   Tolu            4.663e-10   4.663e-10    -9.331    -9.331     0.000     (0)  

------------------------------Saturation indices-------------------------------

  Phase               SI** log IAP   log K(298 K,   1 atm)

  H2(g)           -11.11    -14.21   -3.10  H2
  H2O(g)           -1.50     -0.00    1.50  H2O
  Naph_lq          -2.58     -6.20   -3.62  Naph
  Ndecane_lq       -0.00     -6.43   -6.43  Ndecane
  O2(g)           -61.06    -63.96   -2.89  O2
  Tolu_lq          -7.08     -9.33   -2.25  Tolu

**For a gas, SI = log10(fugacity). Fugacity = pressure * phi / 1 atm.
  For ideal gases, phi = 1.

------------------
End of simulation.
------------------

-------------------------------------
Reading input data for simulation 20.
-------------------------------------

	USE solid_solutions 1
	 USE solution 1
	 SAVE solid_solutions 1
	END
-----------------------------------------
Beginning of batch-reaction calculations.
-----------------------------------------

Reaction step 1.

Using solution 1.	
Using solid solution assemblage 1.	Solid solution assemblage after simulation 19

--------------------------------Solid solutions--------------------------------


Solid solution                Component        Moles  Delta moles   Mole fract

Pool                                        5.64e-04
                                Naph_lq     1.41e-06    -5.99e-08     2.50e-03
                                Tolu_lq     2.34e-11    -2.34e-11     4.15e-08
                             Ndecane_lq     5.63e-04    -3.71e-08     9.98e-01

-----------------------------Solution composition------------------------------

	Elements           Molality       Moles

	Naph              5.989e-07   5.989e-08
	Ndecane           3.706e-07   3.706e-08
	Tolu              2.336e-10   2.336e-11

----------------------------Description of solution----------------------------

                                       pH  =   7.000      Charge balance
                                       pe  =  -1.469      Adjusted to redox equilibrium
      Specific Conductance (µS/cm,  25°C)  = 0
                          Density (g/cm³)  =   0.99704
                               Volume (L)  =   0.10030
                        Activity of water  =   1.000
                 Ionic strength (mol/kgw)  =   1.006e-07
                       Mass of water (kg)  =   1.000e-01
                 Total alkalinity (eq/kg)  =   1.217e-09
                         Temperature (°C)  =  25.00
                  Electrical balance (eq)  =  -1.217e-10
 Percent error, 100*(Cat-|An|)/(Cat+|An|)  =  -0.60
                               Iterations  =  21
                                  Total H  = 1.110124e+01
                                  Total O  = 5.550622e+00

----------------------------Distribution of species----------------------------

                                               Log       Log       Log    mole V
   Species          Molality    Activity  Molality  Activity     Gamma   cm³/mol

   OH-             1.013e-07   1.012e-07    -6.995    -6.995    -0.000     -4.14
   H+              1.000e-07   1.000e-07    -7.000    -7.000    -0.000      0.00
   H2O             5.551e+01   1.000e+00     1.744    -0.000     0.000     18.07
H(0)          1.228e-14
   H2              6.138e-15   6.138e-15   -14.212   -14.212     0.000     28.61
Naph          5.989e-07
   Naph            5.989e-07   5.989e-07    -6.223    -6.223     0.000     (0)  
Ndecane       3.706e-07
   Ndecane         3.706e-07   3.706e-07    -6.431    -6.431     0.000     (0)  
O(0)          0.000e+00
   O2              0.000e+00   0.000e+00   -63.956   -63.956     0.000     30.40
Tolu          2.336e-10
   Tolu            2.336e-10   2.336e-10    -9.632    -9.632     0.000     (0)  

------------------------------Saturation indices-------------------------------

  Phase               SI** log IAP   log K(298 K,   1 atm)

  H2(g)           -11.11    -14.21   -3.10  H2
  H2O(g)           -1.50     -0.00    1.50  H2O
  Naph_lq          -2.60     -6.22   -3.62  Naph
  Ndecane_lq       -0.00     -6.43   -6.43  Ndecane
  O2(g)           -61.06    -63.96   -2.89  O2
  Tolu_lq          -7.38     -9.63   -2.25  Tolu

**For a gas, SI = log10(fugacity). Fugacity = pressure * phi / 1 atm.
  For ideal gases, phi = 1.

------------------
End of simulation.
------------------

-------------------------------------
Reading input data for simulation 21.
-------------------------------------

	USE solid_solutions 1
	 USE solution 1
	 SAVE solid_solutions 1
	END
-----------------------------------------
Beginning of batch-reaction calculations.
-----------------------------------------

Reaction step 1.

Using solution 1.	
Using solid solution assemblage 1.	Solid solution assemblage after simulation 20

--------------------------------Solid solutions--------------------------------


Solid solution                Component        Moles  Delta moles   Mole fract

Pool                                        5.64e-04
                                Naph_lq     1.35e-06    -5.75e-08     2.40e-03
                                Tolu_lq     1.17e-11    -1.17e-11     2.08e-08
                             Ndecane_lq     5.63e-04    -3.71e-08     9.98e-01

-----------------------------Solution composition------------------------------

	Elements           Molality       Moles

	Naph              5.745e-07   5.745e-08
	Ndecane           3.706e-07   3.706e-08
	Tolu              1.170e-10   1.170e-11

----------------------------Description of solution----------------------------

                                       pH  =   7.000      Charge balance
                                       pe  =  -1.469      Adjusted to redox equilibrium
      Specific Conductance (µS/cm,  25°C)  = 0
                          Density (g/cm³)  =   0.99704
                               Volume (L)  =   0.10030
                        Activity of water  =   1.000
                 Ionic strength (mol/kgw)  =   1.006e-07
                       Mass of water (kg)  =   1.000e-01
                 Total alkalinity (eq/kg)  =   1.217e-09
                         Temperature (°C)  =  25.00
                  Electrical balance (eq)  =  -1.217e-10
 Percent error, 100*(Cat-|An|)/(Cat+|An|)  =  -0.60
                               Iterations  =  20
                                  Total H  = 1.110124e+01
                                  Total O  = 5.550622e+00

----------------------------Distribution of species----------------------------

                                               Log       Log       Log    mole V
   Species          Molality    Activity  Molality  Activity     Gamma   cm³/mol

   OH-             1.013e-07   1.012e-07    -6.995    -6.995    -0.000     -4.14
   H+              1.000e-07   1.000e-07    -7.000    -7.000    -0.000      0.00
   H2O             5.551e+01   1.000e+00     1.744    -0.000     0.000     18.07
H(0)          1.228e-14
   H2              6.138e-15   6.138e-15   -14.212   -14.212     0.000     28.61
Naph          5.745e-07
   Naph            5.745e-07   5.745e-07    -6.241    -6.241     0.000     (0)  
Ndecane       3.706e-07
[...]
	Ndecane           3.712e-07   3.712e-08
	Tolu              8.870e-19   8.870e-20

----------------------------Description of solution----------------------------

                                       pH  =   7.000      Charge balance
                                       pe  =  -1.469      Adjusted to redox equilibrium
      Specific Conductance (µS/cm,  25°C)  = 0
                          Density (g/cm³)  =   0.99704
                               Volume (L)  =   0.10030
                        Activity of water  =   1.000
                 Ionic strength (mol/kgw)  =   1.006e-07
                       Mass of water (kg)  =   1.000e-01
                 Total alkalinity (eq/kg)  =   1.217e-09
                         Temperature (°C)  =  25.00
                  Electrical balance (eq)  =  -1.217e-10
 Percent error, 100*(Cat-|An|)/(Cat+|An|)  =  -0.60
                               Iterations  =  13 (717 overall)
                                  Total H  = 1.110124e+01
                                  Total O  = 5.550622e+00

----------------------------Distribution of species----------------------------

                                               Log       Log       Log    mole V
   Species          Molality    Activity  Molality  Activity     Gamma   cm³/mol

   OH-             1.013e-07   1.012e-07    -6.995    -6.995    -0.000     -4.14
   H+              1.000e-07   1.000e-07    -7.000    -7.000    -0.000      0.00
   H2O             5.551e+01   1.000e+00     1.744    -0.000     0.000     18.07
H(0)          1.228e-14
   H2              6.138e-15   6.138e-15   -14.212   -14.212     0.000     28.61
Naph          1.868e-07
   Naph            1.868e-07   1.868e-07    -6.729    -6.729     0.000     (0)  
Ndecane       3.712e-07
   Ndecane         3.712e-07   3.712e-07    -6.430    -6.430     0.000     (0)  
O(0)          0.000e+00
   O2              0.000e+00   0.000e+00   -63.956   -63.956     0.000     30.40
Tolu          8.870e-19
   Tolu            8.870e-19   8.870e-19   -18.052   -18.052     0.000     (0)  

------------------------------Saturation indices-------------------------------

  Phase               SI** log IAP   log K(298 K,   1 atm)

  H2(g)           -11.11    -14.21   -3.10  H2
  H2O(g)           -1.50     -0.00    1.50  H2O
  Naph_lq          -3.11     -6.73   -3.62  Naph
  Ndecane_lq       -0.00     -6.43   -6.43  Ndecane
  O2(g)           -61.06    -63.96   -2.89  O2
  Tolu_lq         -15.80    -18.05   -2.25  Tolu

**For a gas, SI = log10(fugacity). Fugacity = pressure * phi / 1 atm.
  For ideal gases, phi = 1.

------------------
End of simulation.
------------------

-------------------------------------
Reading input data for simulation 49.
-------------------------------------

	USE solid_solutions 1
	 USE solution 1
	 SAVE solid_solutions 1
	END
-----------------------------------------
Beginning of batch-reaction calculations.
-----------------------------------------

Reaction step 1.

WARNING: Maximum iterations exceeded, 100

WARNING: Numerical method failed with this set of convergence parameters.

WARNING: Trying smaller step size, pe step size 10, 5 ... 

WARNING: Maximum iterations exceeded, 200

WARNING: Numerical method failed with this set of convergence parameters.

WARNING: Trying reduced tolerance 1e-16 ...

Using solution 1.	
Using solid solution assemblage 1.	Solid solution assemblage after simulation 48

--------------------------------Solid solutions--------------------------------


Solid solution                Component        Moles  Delta moles   Mole fract

Pool                                        5.62e-04
                                Naph_lq     4.20e-07    -1.79e-08     7.47e-04
                                Tolu_lq     4.43e-20    -4.43e-20     7.89e-17
                             Ndecane_lq     5.62e-04    -3.71e-08     9.99e-01

-----------------------------Solution composition------------------------------

	Elements           Molality       Moles

	Naph              1.792e-07   1.792e-08
	Ndecane           3.713e-07   3.713e-08
	Tolu              4.434e-19   4.434e-20

----------------------------Description of solution----------------------------

                                       pH  =   7.000      Charge balance
                                       pe  =  -1.469      Adjusted to redox equilibrium
      Specific Conductance (µS/cm,  25°C)  = 0
                          Density (g/cm³)  =   0.99704
                               Volume (L)  =   0.10030
                        Activity of water  =   1.000
                 Ionic strength (mol/kgw)  =   1.006e-07
                       Mass of water (kg)  =   1.000e-01
                 Total alkalinity (eq/kg)  =   1.217e-09
                         Temperature (°C)  =  25.00
                  Electrical balance (eq)  =  -1.217e-10
 Percent error, 100*(Cat-|An|)/(Cat+|An|)  =  -0.60
                               Iterations  =  17 (319 overall)
                                  Total H  = 1.110124e+01
                                  Total O  = 5.550622e+00

----------------------------Distribution of species----------------------------

                                               Log       Log       Log    mole V
   Species          Molality    Activity  Molality  Activity     Gamma   cm³/mol

   OH-             1.013e-07   1.012e-07    -6.995    -6.995    -0.000     -4.14
   H+              1.000e-07   1.000e-07    -7.000    -7.000    -0.000      0.00
   H2O             5.551e+01   1.000e+00     1.744    -0.000     0.000     18.07
H(0)          1.228e-14
   H2              6.138e-15   6.138e-15   -14.212   -14.212     0.000     28.61
Naph          1.792e-07
   Naph            1.792e-07   1.792e-07    -6.747    -6.747     0.000     (0)  
Ndecane       3.713e-07
   Ndecane         3.713e-07   3.713e-07    -6.430    -6.430     0.000     (0)  
O(0)          0.000e+00
   O2              0.000e+00   0.000e+00   -63.956   -63.956     0.000     30.40
Tolu          4.434e-19
   Tolu            4.434e-19   4.434e-19   -18.353   -18.353     0.000     (0)  

------------------------------Saturation indices-------------------------------

  Phase               SI** log IAP   log K(298 K,   1 atm)

  H2(g)           -11.11    -14.21   -3.10  H2
  H2O(g)           -1.50     -0.00    1.50  H2O
  Naph_lq          -3.13     -6.75   -3.62  Naph
  Ndecane_lq       -0.00     -6.43   -6.43  Ndecane
  O2(g)           -61.06    -63.96   -2.89  O2
  Tolu_lq         -16.10    -18.35   -2.25  Tolu

**For a gas, SI = log10(fugacity). Fugacity = pressure * phi / 1 atm.
  For ideal gases, phi = 1.

------------------
End of simulation.
------------------

-------------------------------------
Reading input data for simulation 50.
-------------------------------------

	USE solid_solutions 1
	 USE solution 1
	 SAVE solid_solutions 1
	END
-----------------------------------------
Beginning of batch-reaction calculations.
-----------------------------------------

Reaction step 1.

WARNING: Maximum iterations exceeded, 100

WARNING: Numerical method failed with this set of convergence parameters.

WARNING: Trying smaller step size, pe step size 10, 5 ... 

WARNING: Maximum iterations exceeded, 200

WARNING: Numerical method failed with this set of convergence parameters.

WARNING: Trying reduced tolerance 1e-16 ...

WARNING: Maximum iterations exceeded, 200

WARNING: Numerical method failed with this set of convergence parameters.

WARNING: Trying increased tolerance 1e-14 ...

WARNING: Maximum iterations exceeded, 200

WARNING: Numerical method failed with this set of convergence parameters.

WARNING: Trying diagonal scaling ...

Using solution 1.	
Using solid solution assemblage 1.	Solid solution assemblage after simulation 49

--------------------------------Solid solutions--------------------------------


Solid solution                Component        Moles  Delta moles   Mole fract

Pool                                        5.62e-04
                                Naph_lq     4.03e-07    -1.72e-08     7.17e-04
                                Tolu_lq     2.22e-20    -2.22e-20     3.94e-17
                             Ndecane_lq     5.62e-04    -3.71e-08     9.99e-01

-----------------------------Solution composition------------------------------

	Elements           Molality       Moles

	Naph              1.719e-07   1.719e-08
	Ndecane           3.713e-07   3.713e-08
	Tolu              2.217e-19   2.217e-20

----------------------------Description of solution----------------------------

                                       pH  =   7.000      Charge balance
                                       pe  =  -1.469      Adjusted to redox equilibrium
      Specific Conductance (µS/cm,  25°C)  = 0
                          Density (g/cm³)  =   0.99704
                               Volume (L)  =   0.10030
                        Activity of water  =   1.000
                 Ionic strength (mol/kgw)  =   1.006e-07
                       Mass of water (kg)  =   1.000e-01
                 Total alkalinity (eq/kg)  =   1.217e-09
                         Temperature (°C)  =  25.00
                  Electrical balance (eq)  =  -1.217e-10
 Percent error, 100*(Cat-|An|)/(Cat+|An|)  =  -0.60
                               Iterations  =  12 (716 overall)
                                  Total H  = 1.110124e+01
                                  Total O  = 5.550622e+00

----------------------------Distribution of species----------------------------

                                               Log       Log       Log    mole V
   Species          Molality    Activity  Molality  Activity     Gamma   cm³/mol

   OH-             1.013e-07   1.012e-07    -6.995    -6.995    -0.000     -4.14
   H+              1.000e-07   1.000e-07    -7.000    -7.000    -0.000      0.00
   H2O             5.551e+01   1.000e+00     1.744    -0.000     0.000     18.07
H(0)          1.228e-14
   H2              6.138e-15   6.138e-15   -14.212   -14.212     0.000     28.61
Naph          1.719e-07
   Naph            1.719e-07   1.719e-07    -6.765    -6.765     0.000     (0)  
Ndecane       3.713e-07
   Ndecane         3.713e-07   3.713e-07    -6.430    -6.430     0.000     (0)  
O(0)          0.000e+00
   O2              0.000e+00   0.000e+00   -63.956   -63.956     0.000     30.40
Tolu          2.217e-19
   Tolu            2.217e-19   2.217e-19   -18.654   -18.654     0.000     (0)  

------------------------------Saturation indices-------------------------------

  Phase               SI** log IAP   log K(298 K,   1 atm)

  H2(g)           -11.11    -14.21   -3.10  H2
  H2O(g)           -1.50     -0.00    1.50  H2O
  Naph_lq          -3.14     -6.76   -3.62  Naph
  Ndecane_lq       -0.00     -6.43   -6.43  Ndecane
  O2(g)           -61.06    -63.96   -2.89  O2
  Tolu_lq         -16.40    -18.65   -2.25  Tolu

**For a gas, SI = log10(fugacity). Fugacity = pressure * phi / 1 atm.
  For ideal gases, phi = 1.

------------------
End of simulation.
------------------

-------------------------------------
Reading input data for simulation 51.
-------------------------------------

	USE solid_solutions 1
	 USE solution 1
	 SAVE solid_solutions 1
	END
-----------------------------------------
Beginning of batch-reaction calculations.
-----------------------------------------

Reaction step 1.

WARNING: Maximum iterations exceeded, 100

WARNING: Numerical method failed with this set of convergence parameters.

WARNING: Trying smaller step size, pe step size 10, 5 ... 

WARNING: Maximum iterations exceeded, 200

WARNING: Numerical method failed with this set of convergence parameters.

WARNING: Trying reduced tolerance 1e-16 ...

WARNING: Maximum iterations exceeded, 200

WARNING: Numerical method failed with this set of convergence parameters.

WARNING: Trying increased tolerance 1e-14 ...

WARNING: Maximum iterations exceeded, 200

WARNING: Numerical method failed with this set of convergence parameters.

WARNING: Trying diagonal scaling ...

Using solution 1.	
Using solid solution assemblage 1.	Solid solution assemblage after simulation 50

--------------------------------Solid solutions--------------------------------


Solid solution                Component        Moles  Delta moles   Mole fract

Pool                                        5.62e-04
                                Naph_lq     3.86e-07    -1.65e-08     6.87e-04
                                Tolu_lq     1.11e-20    -1.11e-20     1.97e-17
                             Ndecane_lq     5.62e-04    -3.71e-08     9.99e-01

-----------------------------Solution composition------------------------------

	Elements           Molality       Moles

	Naph              1.649e-07   1.649e-08
	Ndecane           3.713e-07   3.713e-08
	Tolu              1.108e-19   1.108e-20

----------------------------Description of solution----------------------------

                                       pH  =   7.000      Charge balance
                                       pe  =  -1.469      Adjusted to redox equilibrium
      Specific Conductance (µS/cm,  25°C)  = 0
                          Density (g/cm³)  =   0.99704
                               Volume (L)  =   0.10030
                        Activity of water  =   1.000
                 Ionic strength (mol/kgw)  =   1.006e-07
                       Mass of water (kg)  =   1.000e-01
                 Total alkalinity (eq/kg)  =   1.217e-09
                         Temperature (°C)  =  25.00
                  Electrical balance (eq)  =  -1.217e-10
 Percent error, 100*(Cat-|An|)/(Cat+|An|)  =  -0.60
                               Iterations  =  12 (716 overall)
                                  Total H  = 1.110124e+01
                                  Total O  = 5.550622e+00

----------------------------Distribution of species----------------------------

                                               Log       Log       Log    mole V
   Species          Molality    Activity  Molality  Activity     Gamma   cm³/mol

   OH-             1.013e-07   1.012e-07    -6.995    -6.995    -0.000     -4.14
   H+              1.000e-07   1.000e-07    -7.000    -7.000    -0.000      0.00
   H2O             5.551e+01   1.000e+00     1.744    -0.000     0.000     18.07
H(0)          1.228e-14
   H2              6.138e-15   6.138e-15   -14.212   -14.212     0.000     28.61
Naph          1.649e-07
   Naph            1.649e-07   1.649e-07    -6.783    -6.783     0.000     (0)  
Ndecane       3.713e-07
   Ndecane         3.713e-07   3.713e-07    -6.430    -6.430     0.000     (0)  
O(0)          0.000e+00
   O2              0.000e+00   0.000e+00   -63.956   -63.956     0.000     30.40
Tolu          1.108e-19
   Tolu            1.108e-19   1.108e-19   -18.955   -18.955     0.000     (0)  

------------------------------Saturation indices-------------------------------

  Phase               SI** log IAP   log K(298 K,   1 atm)

  H2(g)           -11.11    -14.21   -3.10  H2
  H2O(g)           -1.50     -0.00    1.50  H2O
  Naph_lq          -3.16     -6.78   -3.62  Naph
  Ndecane_lq       -0.00     -6.43   -6.43  Ndecane
  O2(g)           -61.06    -63.96   -2.89  O2
  Tolu_lq         -16.71    -18.96   -2.25  Tolu

**For a gas, SI = log10(fugacity). Fugacity = pressure * phi / 1 atm.
  For ideal gases, phi = 1.

------------------
End of simulation.
------------------

-------------------------------------
Reading input data for simulation 52.
-------------------------------------

	USE solid_solutions 1
	 USE solution 1
	 SAVE solid_solutions 1
	END
-----------------------------------------
Beginning of batch-reaction calculations.
-----------------------------------------

Reaction step 1.

WARNING: Maximum iterations exceeded, 100

WARNING: Numerical method failed with this set of convergence parameters.

WARNING: Trying smaller step size, pe step size 10, 5 ... 

WARNING: Maximum iterations exceeded, 200

WARNING: Numerical method failed with this set of convergence parameters.

WARNING: Trying reduced tolerance 1e-16 ...

WARNING: Maximum iterations exceeded, 200

WARNING: Numerical method failed with this set of convergence parameters.

WARNING: Trying increased tolerance 1e-14 ...

WARNING: Maximum iterations exceeded, 200

WARNING: Numerical method failed with this set of convergence parameters.

WARNING: Trying diagonal scaling ...

Using solution 1.	
Using solid solution assemblage 1.	Solid solution assemblage after simulation 51

--------------------------------Solid solutions--------------------------------


Solid solution                Component        Moles  Delta moles   Mole fract

Pool                                        5.62e-04
                                Naph_lq     3.70e-07    -1.58e-08     6.59e-04
                                Tolu_lq     5.53e-21    -5.54e-21     9.85e-18
                             Ndecane_lq     5.62e-04    -3.71e-08     9.99e-01

-----------------------------Solution composition------------------------------

	Elements           Molality       Moles

	Naph              1.581e-07   1.581e-08
	Ndecane           3.713e-07   3.713e-08
	Tolu              5.539e-20   5.539e-21

----------------------------Description of solution----------------------------

                                       pH  =   7.000      Charge balance
                                       pe  =  -1.469      Adjusted to redox equilibrium
      Specific Conductance (µS/cm,  25°C)  = 0
                          Density (g/cm³)  =   0.99704
                               Volume (L)  =   0.10030
                        Activity of water  =   1.000
                 Ionic strength (mol/kgw)  =   1.006e-07
                       Mass of water (kg)  =   1.000e-01
                 Total alkalinity (eq/kg)  =   1.217e-09
                         Temperature (°C)  =  25.00
                  Electrical balance (eq)  =  -1.217e-10
 Percent error, 100*(Cat-|An|)/(Cat+|An|)  =  -0.60
                               Iterations  =  11 (715 overall)
                                  Total H  = 1.110124e+01
                                  Total O  = 5.550622e+00

----------------------------Distribution of species----------------------------

                                               Log       Log       Log    mole V
   Species          Molality    Activity  Molality  Activity     Gamma   cm³/mol

   OH-             1.013e-07   1.012e-07    -6.995    -6.995    -0.000     -4.14
   H+              1.000e-07   1.000e-07    -7.000    -7.000    -0.000      0.00
   H2O             5.551e+01   1.000e+00     1.744    -0.000     0.000     18.07
H(0)          1.228e-14
   H2              6.139e-15   6.139e-15   -14.212   -14.212     0.000     28.61
Naph          1.581e-07
   Naph            1.581e-07   1.581e-07    -6.801    -6.801     0.000     (0)  
Ndecane       3.713e-07
   Ndecane         3.713e-07   3.713e-07    -6.430    -6.430     0.000     (0)  
O(0)          0.000e+00
   O2              0.000e+00   0.000e+00   -63.956   -63.956     0.000     30.40
Tolu          5.539e-20
   Tolu            5.539e-20   5.539e-20   -19.257   -19.257     0.000     (0)  

------------------------------Saturation indices-------------------------------

  Phase               SI** log IAP   log K(298 K,   1 atm)

  H2(g)           -11.11    -14.21   -3.10  H2
  H2O(g)           -1.50     -0.00    1.50  H2O
  Naph_lq          -3.18     -6.80   -3.62  Naph
  Ndecane_lq       -0.00     -6.43   -6.43  Ndecane
  O2(g)           -61.06    -63.96   -2.89  O2
  Tolu_lq         -17.01    -19.26   -2.25  Tolu

**For a gas, SI = log10(fugacity). Fugacity = pressure * phi / 1 atm.
  For ideal gases, phi = 1.

------------------
End of simulation.
------------------

-------------------------------------
Reading input data for simulation 53.
-------------------------------------

-------------------------------
End of Run after 2.033 Seconds.
-------------------------------

