   Input file: albite2.phq
  Output file: albite2.phq.out
Database file: C:\Users\Eirik\Desktop\phreeqc-3.6.2-15100-x64\database\phreeqc.dat

------------------
Reading data base.
------------------

	SOLUTION_MASTER_SPECIES
	SOLUTION_SPECIES
	PHASES
	EXCHANGE_MASTER_SPECIES
	EXCHANGE_SPECIES
	SURFACE_MASTER_SPECIES
	SURFACE_SPECIES
	RATES
	END
------------------------------------
Reading input data for simulation 1.
------------------------------------

	Database file: C:\Users\Eirik\Desktop\phreeqc-3.6.2-15100-x64\database\phreeqc.dat
	SOLUTION 1
		temp 25
	EQUILIBRIUM_PHASES 1
		CO2(g)	-3.5
		O2(g) -0.7
	RATES 1
	Albite
		start
		1 ka = parm(1)		#Rate constant for acid mechanism (mol/m^2/s)
		2 n = parm(2)		#Reaction order n with respect to H+	
		3 kn = parm(3)		#Rate constant for acid mechanism (mol/m^2/s)
		10 rate = ((ka*(ACT("H+")^n)) + kn)*(1 -  SR("Albite"))	#Overall rate
		20 moles = rate*time
		30 save moles
		end
	KINETICS 1
	Albite
		formula NaAlSi3O8
		m0  1e-3             			#Initial amount 1 mmol     	
		parms 6.9e-11 0.457 2.8e-13			#Values for ka, n and kn
		time_steps 25 years in 100          #60 years in 100 time steps
	INCREMENTAL_REACTIONS true
	USER_PUNCH 				#Write the simulation time in years to the selected output file
		headings time_yr
		10 PUNCH total_time/3.1536e7 
	SELECTED_OUTPUT 
		file Aex2.xls
		reset false
		time true
		kinetic_reactants Albite
		saturation_indices Albite
		step true
		ph true
	USER_GRAPH 2
		-chart_title "Albite saturation with CO2, T=25, gasses in equilibrium"
		-axis_titles "Years" "SR" "Albite remaining (mmol)"
		-headings time SR Albite_remaining
		-initial_solutions  false
		-start
		10 graph_x total_time/3.1536e7 				
		20 graph_y SR("Albite")				
		30 graph_sy KIN("Albite")*1e3			
		-end
	END
-------------------------------------------
Beginning of initial solution calculations.
-------------------------------------------

Initial solution 1.	

-----------------------------Solution composition------------------------------

	Elements           Molality       Moles

	Pure water     

----------------------------Description of solution----------------------------

                                       pH  =   7.000    
                                       pe  =   4.000    
      Specific Conductance (µS/cm,  25°C)  = 0
                          Density (g/cm³)  =   0.99704
                               Volume (L)  =   1.00297
                        Activity of water  =   1.000
                 Ionic strength (mol/kgw)  =   1.007e-07
                       Mass of water (kg)  =   1.000e+00
                 Total alkalinity (eq/kg)  =   1.217e-09
                         Temperature (°C)  =  25.00
                  Electrical balance (eq)  =  -1.217e-09
 Percent error, 100*(Cat-|An|)/(Cat+|An|)  =  -0.60
                               Iterations  =   0
                                  Total H  = 1.110124e+02
                                  Total O  = 5.550622e+01

----------------------------Distribution of species----------------------------

                                               Log       Log       Log    mole V
   Species          Molality    Activity  Molality  Activity     Gamma   cm³/mol

   OH-             1.013e-07   1.012e-07    -6.995    -6.995    -0.000     -4.14
   H+              1.001e-07   1.000e-07    -7.000    -7.000    -0.000      0.00
   H2O             5.551e+01   1.000e+00     1.744     0.000     0.000     18.07
H(0)          1.416e-25
   H2              7.079e-26   7.079e-26   -25.150   -25.150     0.000     28.61
O(0)          0.000e+00
   O2              0.000e+00   0.000e+00   -42.080   -42.080     0.000     30.40

------------------------------Saturation indices-------------------------------

  Phase               SI** log IAP   log K(298 K,   1 atm)

  H2(g)           -22.05    -25.15   -3.10  H2
  H2O(g)           -1.50      0.00    1.50  H2O
  O2(g)           -39.19    -42.08   -2.89  O2

**For a gas, SI = log10(fugacity). Fugacity = pressure * phi / 1 atm.
  For ideal gases, phi = 1.

-----------------------------------------
Beginning of batch-reaction calculations.
-----------------------------------------

Reaction step 1.

Using solution 1.	
Using pure phase assemblage 1.	
Using kinetics 1.	

Kinetics 1.	

	Time step: 7.8894e+06 seconds  (Incremented time: 7.8894e+06 seconds)

	Rate name       Delta Moles Total Moles   Reactant        Coefficient

	Albite           -3.296e-06   9.967e-04   NaAlSi3O8                 1

-------------------------------Phase assemblage--------------------------------

                                                      Moles in assemblage
Phase               SI  log IAP  log K(T, P)   Initial       Final       Delta

CO2(g)           -3.50    -4.97     -1.47    1.000e+01   1.000e+01  -1.652e-05
O2(g)            -0.70    -3.59     -2.89    1.000e+01   1.000e+01  -2.556e-04

-----------------------------Solution composition------------------------------

	Elements           Molality       Moles

	Al                3.296e-06   3.296e-06
	C                 1.652e-05   1.652e-05
	Na                3.296e-06   3.296e-06
	Si                9.888e-06   9.888e-06

----------------------------Description of solution----------------------------

                                       pH  =   6.079      Charge balance
                                       pe  =  14.543      Adjusted to redox equilibrium
      Specific Conductance (µS/cm,  25°C)  = 0
                          Density (g/cm³)  =   0.99704
                               Volume (L)  =   1.00297
                        Activity of water  =   1.000
                 Ionic strength (mol/kgw)  =   6.814e-06
                       Mass of water (kg)  =   1.000e+00
                 Total alkalinity (eq/kg)  =   1.318e-05
                       Total CO2 (mol/kg)  =   1.652e-05
                         Temperature (°C)  =  25.00
                  Electrical balance (eq)  =  -1.217e-09
 Percent error, 100*(Cat-|An|)/(Cat+|An|)  =  -0.01
                               Iterations  =  40
                                  Total H  = 1.110124e+02
                                  Total O  = 5.550679e+01

----------------------------Distribution of species----------------------------

                                               Log       Log       Log    mole V
   Species          Molality    Activity  Molality  Activity     Gamma   cm³/mol

   H+              8.361e-07   8.335e-07    -6.078    -6.079    -0.001      0.00
   OH-             1.218e-08   1.214e-08    -7.914    -7.916    -0.001     -4.14
   H2O             5.551e+01   1.000e+00     1.744    -0.000     0.000     18.07
Al            3.296e-06
   Al(OH)2+        1.947e-06   1.942e-06    -5.711    -5.712    -0.001     (0)  
   Al(OH)4-        7.784e-07   7.760e-07    -6.109    -6.110    -0.001     (0)  
   Al(OH)3         3.432e-07   3.432e-07    -6.464    -6.464     0.000     (0)  
   AlOH+2          2.090e-07   2.065e-07    -6.680    -6.685    -0.005    -27.86
   Al+3            1.781e-08   1.733e-08    -7.749    -7.761    -0.012    -42.51
C(-4)         0.000e+00
   CH4             0.000e+00   0.000e+00  -145.553  -145.553     0.000     35.46
C(4)          1.652e-05
   CO2             1.076e-05   1.076e-05    -4.968    -4.968     0.000     34.43
   HCO3-           5.759e-06   5.742e-06    -5.240    -5.241    -0.001     24.65
   CO3-2           3.270e-10   3.230e-10    -9.485    -9.491    -0.005     -5.38
   NaHCO3          1.061e-11   1.061e-11   -10.974   -10.974     0.000      1.80
   (CO2)2          2.125e-12   2.125e-12   -11.673   -11.673     0.000     68.87
   NaCO3-          1.983e-14   1.977e-14   -13.703   -13.704    -0.001     -1.06
H(0)          0.000e+00
   H2              0.000e+00   0.000e+00   -44.394   -44.394     0.000     28.61
Na            3.296e-06
   Na+             3.296e-06   3.286e-06    -5.482    -5.483    -0.001     -1.52
   NaHCO3          1.061e-11   1.061e-11   -10.974   -10.974     0.000      1.80
   NaCO3-          1.983e-14   1.977e-14   -13.703   -13.704    -0.001     -1.06
   NaOH            3.990e-24   3.990e-24   -23.399   -23.399     0.000     (0)  
O(0)          5.112e-04
   O2              2.556e-04   2.556e-04    -3.592    -3.592     0.000     30.40
Si            9.888e-06
   H4SiO4          9.886e-06   9.886e-06    -5.005    -5.005     0.000     52.08
   H3SiO4-         1.754e-09   1.749e-09    -8.756    -8.757    -0.001     27.95
   H2SiO4-2        1.445e-16   1.427e-16   -15.840   -15.846    -0.005     (0)  

------------------------------Saturation indices-------------------------------

  Phase               SI** log IAP   log K(298 K,   1 atm)

  Al(OH)3(a)       -0.32     10.48   10.80  Al(OH)3
  Albite           -8.61    -26.61  -18.00  NaAlSi3O8
  CH4(g)         -142.75   -145.55   -2.80  CH4
  Chalcedony       -1.45     -5.00   -3.55  SiO2
  CO2(g)           -3.50     -4.97   -1.47  CO2	 Pressure   0.0 atm, phi 1.000
  Gibbsite          2.37     10.48    8.11  Al(OH)3
  H2(g)           -41.29    -44.39   -3.10  H2
  H2O(g)           -1.50     -0.00    1.50  H2O
  Kaolinite         3.51     10.94    7.43  Al2Si2O5(OH)4
  O2(g)            -0.70     -3.59   -2.89  O2	 Pressure   0.2 atm, phi 1.000
  Quartz           -1.02     -5.00   -3.98  SiO2
  SiO2(a)          -2.29     -5.00   -2.71  SiO2

**For a gas, SI = log10(fugacity). Fugacity = pressure * phi / 1 atm.
  For ideal gases, phi = 1.

Reaction step 2.

Using solution 1.	
Using pure phase assemblage 1.	
Using kinetics 1.	

Kinetics 1.	

	Time step: 7.8894e+06 seconds  (Incremented time: 1.57788e+07 seconds)

	Rate name       Delta Moles Total Moles   Reactant        Coefficient

	Albite           -3.042e-06   9.937e-04   NaAlSi3O8                 1

-------------------------------Phase assemblage--------------------------------

                                                      Moles in assemblage
Phase               SI  log IAP  log K(T, P)   Initial       Final       Delta

CO2(g)           -3.50    -4.97     -1.47    1.000e+01   1.000e+01  -2.310e-06
O2(g)            -0.70    -3.59     -2.89    1.000e+01   1.000e+01   3.406e-10

-----------------------------Solution composition------------------------------

	Elements           Molality       Moles

	Al                6.338e-06   6.338e-06
	C                 1.883e-05   1.883e-05
	Na                6.338e-06   6.338e-06
	Si                1.901e-05   1.901e-05

----------------------------Description of solution----------------------------

                                       pH  =   6.225      Charge balance
                                       pe  =  14.397      Adjusted to redox equilibrium
      Specific Conductance (µS/cm,  25°C)  = 0
                          Density (g/cm³)  =   0.99705
                               Volume (L)  =   1.00297
                        Activity of water  =   1.000
                 Ionic strength (mol/kgw)  =   1.072e-05
                       Mass of water (kg)  =   1.000e+00
                 Total alkalinity (eq/kg)  =   2.535e-05
                       Total CO2 (mol/kg)  =   1.883e-05
                         Temperature (°C)  =  25.00
                  Electrical balance (eq)  =  -1.217e-09
 Percent error, 100*(Cat-|An|)/(Cat+|An|)  =  -0.01
                               Iterations  =  29
                                  Total H  = 1.110124e+02
                                  Total O  = 5.550682e+01

----------------------------Distribution of species----------------------------

                                               Log       Log       Log    mole V
   Species          Molality    Activity  Molality  Activity     Gamma   cm³/mol

   H+              5.977e-07   5.954e-07    -6.224    -6.225    -0.002      0.00
   OH-             1.706e-08   1.700e-08    -7.768    -7.770    -0.002     -4.14
   H2O             5.551e+01   1.000e+00     1.744    -0.000     0.000     18.07
Al            6.338e-06
   Al(OH)2+        3.002e-06   2.991e-06    -5.523    -5.524    -0.002     (0)  
   Al(OH)4-        2.351e-06   2.342e-06    -5.629    -5.630    -0.002     (0)  
   Al(OH)3         7.400e-07   7.400e-07    -6.131    -6.131     0.000     (0)  
   AlOH+2          2.307e-07   2.272e-07    -6.637    -6.644    -0.007    -27.86
   Al+3            1.409e-08   1.362e-08    -7.851    -7.866    -0.015    -42.51
C(-4)         0.000e+00
   CH4             0.000e+00   0.000e+00  -145.553  -145.553     0.000     35.46
C(4)          1.883e-05
   CO2             1.076e-05   1.076e-05    -4.968    -4.968     0.000     34.43
   HCO3-           8.068e-06   8.038e-06    -5.093    -5.095    -0.002     24.65
   CO3-2           6.428e-10   6.330e-10    -9.192    -9.199    -0.007     -5.38
   NaHCO3          2.854e-11   2.854e-11   -10.545   -10.545     0.000      1.80
   (CO2)2          2.125e-12   2.125e-12   -11.673   -11.673     0.000     68.87
   NaCO3-          7.471e-14   7.443e-14   -13.127   -13.128    -0.002     -1.06
H(0)          0.000e+00
   H2              0.000e+00   0.000e+00   -44.394   -44.394     0.000     28.61
Na            6.338e-06
   Na+             6.338e-06   6.314e-06    -5.198    -5.200    -0.002     -1.52
   NaHCO3          2.854e-11   2.854e-11   -10.545   -10.545     0.000      1.80
   NaCO3-          7.471e-14   7.443e-14   -13.127   -13.128    -0.002     -1.06
   NaOH            1.073e-23   1.073e-23   -22.969   -22.969     0.000     (0)  
O(0)          5.112e-04
   O2              2.556e-04   2.556e-04    -3.592    -3.592     0.000     30.40
Si            1.901e-05
   H4SiO4          1.901e-05   1.901e-05    -4.721    -4.721     0.000     52.08
   H3SiO4-         4.725e-09   4.707e-09    -8.326    -8.327    -0.002     27.95
   H2SiO4-2        5.461e-16   5.378e-16   -15.263   -15.269    -0.007     (0)  

------------------------------Saturation indices-------------------------------

  Phase               SI** log IAP   log K(298 K,   1 atm)

  Al(OH)3(a)        0.01     10.81   10.80  Al(OH)3
  Albite           -6.99    -24.99  -18.00  NaAlSi3O8
  CH4(g)         -142.75   -145.55   -2.80  CH4
  Chalcedony       -1.17     -4.72   -3.55  SiO2
  CO2(g)           -3.50     -4.97   -1.47  CO2	 Pressure   0.0 atm, phi 1.000
  Gibbsite          2.70     10.81    8.11  Al(OH)3
  H2(g)           -41.29    -44.39   -3.10  H2
  H2O(g)           -1.50     -0.00    1.50  H2O
  Kaolinite         4.74     12.18    7.43  Al2Si2O5(OH)4
  O2(g)            -0.70     -3.59   -2.89  O2	 Pressure   0.2 atm, phi 1.000
  Quartz           -0.74     -4.72   -3.98  SiO2
  SiO2(a)          -2.01     -4.72   -2.71  SiO2

**For a gas, SI = log10(fugacity). Fugacity = pressure * phi / 1 atm.
  For ideal gases, phi = 1.

Reaction step 3.

Using solution 1.	
Using pure phase assemblage 1.	
Using kinetics 1.	

Kinetics 1.	

	Time step: 7.8894e+06 seconds  (Incremented time: 2.36682e+07 seconds)

	Rate name       Delta Moles Total Moles   Reactant        Coefficient

	Albite           -2.952e-06   9.907e-04   NaAlSi3O8                 1

-------------------------------Phase assemblage--------------------------------

                                                      Moles in assemblage
Phase               SI  log IAP  log K(T, P)   Initial       Final       Delta

CO2(g)           -3.50    -4.97     -1.47    1.000e+01   1.000e+01  -1.675e-06
O2(g)            -0.70    -3.59     -2.89    1.000e+01   1.000e+01   3.179e-10

-----------------------------Solution composition------------------------------

	Elements           Molality       Moles

	Al                9.290e-06   9.290e-06
	C                 2.050e-05   2.050e-05
	Na                9.290e-06   9.290e-06
	Si                2.787e-05   2.787e-05

----------------------------Description of solution----------------------------

                                       pH  =   6.307      Charge balance
                                       pe  =  14.315      Adjusted to redox equilibrium
      Specific Conductance (µS/cm,  25°C)  = 1
                          Density (g/cm³)  =   0.99705
                               Volume (L)  =   1.00297
                        Activity of water  =   1.000
                 Ionic strength (mol/kgw)  =   1.428e-05
                       Mass of water (kg)  =   1.000e+00
                 Total alkalinity (eq/kg)  =   3.716e-05
                       Total CO2 (mol/kg)  =   2.050e-05
                         Temperature (°C)  =  25.00
                  Electrical balance (eq)  =  -1.217e-09
 Percent error, 100*(Cat-|An|)/(Cat+|An|)  =  -0.00
                               Iterations  =  25
                                  Total H  = 1.110124e+02
                                  Total O  = 5.550684e+01

----------------------------Distribution of species----------------------------

                                               Log       Log       Log    mole V
   Species          Molality    Activity  Molality  Activity     Gamma   cm³/mol

   H+              4.955e-07   4.934e-07    -6.305    -6.307    -0.002      0.00
   OH-             2.061e-08   2.051e-08    -7.686    -7.688    -0.002     -4.13
   H2O             5.551e+01   1.000e+00     1.744    -0.000     0.000     18.07
Al            9.290e-06
   Al(OH)4-        4.231e-06   4.212e-06    -5.374    -5.376    -0.002     (0)  
   Al(OH)2+        3.708e-06   3.692e-06    -5.431    -5.433    -0.002     (0)  
   Al(OH)3         1.103e-06   1.103e-06    -5.958    -5.958     0.000     (0)  
   AlOH+2          2.366e-07   2.324e-07    -6.626    -6.634    -0.008    -27.86
   Al+3            1.201e-08   1.154e-08    -7.920    -7.938    -0.017    -42.50
C(-4)         0.000e+00
   CH4             0.000e+00   0.000e+00  -145.553  -145.553     0.000     35.46
C(4)          2.050e-05
   CO2             1.076e-05   1.076e-05    -4.968    -4.968     0.000     34.43
   HCO3-           9.743e-06   9.700e-06    -5.011    -5.013    -0.002     24.65
   CO3-2           9.384e-10   9.220e-10    -9.028    -9.035    -0.008     -5.38
   NaHCO3          5.045e-11   5.045e-11   -10.297   -10.297     0.000      1.80
   (CO2)2          2.125e-12   2.125e-12   -11.673   -11.673     0.000     68.87
   NaCO3-          1.595e-13   1.588e-13   -12.797   -12.799    -0.002     -1.06
H(0)          0.000e+00
   H2              0.000e+00   0.000e+00   -44.394   -44.394     0.000     28.61
Na            9.290e-06
   Na+             9.290e-06   9.249e-06    -5.032    -5.034    -0.002     -1.52
   NaHCO3          5.045e-11   5.045e-11   -10.297   -10.297     0.000      1.80
   NaCO3-          1.595e-13   1.588e-13   -12.797   -12.799    -0.002     -1.06
   NaOH            1.897e-23   1.897e-23   -22.722   -22.722     0.000     (0)  
O(0)          5.112e-04
   O2              2.556e-04   2.556e-04    -3.592    -3.592     0.000     30.40
Si            2.787e-05
   H4SiO4          2.786e-05   2.786e-05    -4.555    -4.555     0.000     52.08
   H3SiO4-         8.364e-09   8.327e-09    -8.078    -8.080    -0.002     27.95
   H2SiO4-2        1.168e-15   1.148e-15   -14.932   -14.940    -0.008     (0)  

------------------------------Saturation indices-------------------------------

  Phase               SI** log IAP   log K(298 K,   1 atm)

  Al(OH)3(a)        0.18     10.98   10.80  Al(OH)3
  Albite           -6.07    -24.07  -18.00  NaAlSi3O8
  CH4(g)         -142.75   -145.55   -2.80  CH4
  Chalcedony       -1.00     -4.55   -3.55  SiO2
  CO2(g)           -3.50     -4.97   -1.47  CO2	 Pressure   0.0 atm, phi 1.000
  Gibbsite          2.87     10.98    8.11  Al(OH)3
  H2(g)           -41.29    -44.39   -3.10  H2
  H2O(g)           -1.50     -0.00    1.50  H2O
  Kaolinite         5.42     12.86    7.43  Al2Si2O5(OH)4
  O2(g)            -0.70     -3.59   -2.89  O2	 Pressure   0.2 atm, phi 1.000
  Quartz           -0.57     -4.55   -3.98  SiO2
  SiO2(a)          -1.84     -4.55   -2.71  SiO2

**For a gas, SI = log10(fugacity). Fugacity = pressure * phi / 1 atm.
  For ideal gases, phi = 1.

Reaction step 4.

Using solution 1.	
Using pure phase assemblage 1.	
Using kinetics 1.	

Kinetics 1.	

	Time step: 7.8894e+06 seconds  (Incremented time: 3.15576e+07 seconds)

	Rate name       Delta Moles Total Moles   Reactant        Coefficient

	Albite           -2.901e-06   9.878e-04   NaAlSi3O8                 1

-------------------------------Phase assemblage--------------------------------

                                                      Moles in assemblage
Phase               SI  log IAP  log K(T, P)   Initial       Final       Delta

CO2(g)           -3.50    -4.97     -1.47    1.000e+01   1.000e+01  -1.341e-06
O2(g)            -0.70    -3.59     -2.89    1.000e+01   1.000e+01   3.054e-10

-----------------------------Solution composition------------------------------

	Elements           Molality       Moles

	Al                1.219e-05   1.219e-05
	C                 2.185e-05   2.185e-05
	Na                1.219e-05   1.219e-05
	Si                3.658e-05   3.658e-05

----------------------------Description of solution----------------------------

                                       pH  =   6.363      Charge balance
                                       pe  =  14.259      Adjusted to redox equilibrium
      Specific Conductance (µS/cm,  25°C)  = 1
                          Density (g/cm³)  =   0.99705
                               Volume (L)  =   1.00297
                        Activity of water  =   1.000
                 Ionic strength (mol/kgw)  =   1.766e-05
                       Mass of water (kg)  =   1.000e+00
                 Total alkalinity (eq/kg)  =   4.877e-05
                       Total CO2 (mol/kg)  =   2.185e-05
                         Temperature (°C)  =  25.00
                  Electrical balance (eq)  =  -1.217e-09
 Percent error, 100*(Cat-|An|)/(Cat+|An|)  =  -0.00
                               Iterations  =  24
                                  Total H  = 1.110124e+02
                                  Total O  = 5.550687e+01

----------------------------Distribution of species----------------------------

                                               Log       Log       Log    mole V
   Species          Molality    Activity  Molality  Activity     Gamma   cm³/mol

   H+              4.360e-07   4.339e-07    -6.360    -6.363    -0.002      0.00
   OH-             2.344e-08   2.333e-08    -7.630    -7.632    -0.002     -4.13
   H2O             5.551e+01   1.000e+00     1.744    -0.000     0.000     18.07
Al            1.219e-05
   Al(OH)4-        6.262e-06   6.231e-06    -5.203    -5.205    -0.002     (0)  
   Al(OH)2+        4.246e-06   4.225e-06    -5.372    -5.374    -0.002     (0)  
   Al(OH)3         1.435e-06   1.435e-06    -5.843    -5.843     0.000     (0)  
   AlOH+2          2.385e-07   2.339e-07    -6.622    -6.631    -0.009    -27.86
   Al+3            1.068e-08   1.022e-08    -7.972    -7.991    -0.019    -42.50
C(-4)         0.000e+00
   CH4             0.000e+00   0.000e+00  -145.553  -145.553     0.000     35.46
C(4)          2.185e-05
   HCO3-           1.108e-05   1.103e-05    -4.955    -4.957    -0.002     24.66
   CO2             1.076e-05   1.076e-05    -4.968    -4.968     0.000     34.43
   CO3-2           1.216e-09   1.192e-09    -8.915    -8.924    -0.009     -5.38
   NaHCO3          7.525e-11   7.525e-11   -10.124   -10.124     0.000      1.80
   (CO2)2          2.125e-12   2.125e-12   -11.673   -11.673     0.000     68.87
   NaCO3-          2.706e-13   2.693e-13   -12.568   -12.570    -0.002     -1.06
H(0)          0.000e+00
   H2              0.000e+00   0.000e+00   -44.394   -44.394     0.000     28.61
Na            1.219e-05
   Na+             1.219e-05   1.213e-05    -4.914    -4.916    -0.002     -1.52
   NaHCO3          7.525e-11   7.525e-11   -10.124   -10.124     0.000      1.80
   NaCO3-          2.706e-13   2.693e-13   -12.568   -12.570    -0.002     -1.06
   NaOH            2.830e-23   2.830e-23   -22.548   -22.548     0.000     (0)  
O(0)          5.112e-04
   O2              2.556e-04   2.556e-04    -3.592    -3.592     0.000     30.40
Si            3.658e-05
   H4SiO4          3.656e-05   3.656e-05    -4.437    -4.437     0.000     52.08
   H3SiO4-         1.249e-08   1.242e-08    -7.904    -7.906    -0.002     27.95
   H2SiO4-2        1.986e-15   1.948e-15   -14.702   -14.710    -0.009     (0)  

------------------------------Saturation indices-------------------------------

  Phase               SI** log IAP   log K(298 K,   1 atm)

  Al(OH)3(a)        0.30     11.10   10.80  Al(OH)3
  Albite           -5.43    -23.43  -18.00  NaAlSi3O8
  CH4(g)         -142.75   -145.55   -2.80  CH4
  Chalcedony       -0.89     -4.44   -3.55  SiO2
  CO2(g)           -3.50     -4.97   -1.47  CO2	 Pressure   0.0 atm, phi 1.000
  Gibbsite          2.99     11.10    8.11  Al(OH)3
  H2(g)           -41.29    -44.39   -3.10  H2
  H2O(g)           -1.50     -0.00    1.50  H2O
  Kaolinite         5.89     13.32    7.43  Al2Si2O5(OH)4
  O2(g)            -0.70     -3.59   -2.89  O2	 Pressure   0.2 atm, phi 1.000
  Quartz           -0.46     -4.44   -3.98  SiO2
  SiO2(a)          -1.73     -4.44   -2.71  SiO2

**For a gas, SI = log10(fugacity). Fugacity = pressure * phi / 1 atm.
  For ideal gases, phi = 1.

Reaction step 5.

Using solution 1.	
Using pure phase assemblage 1.	
Using kinetics 1.	

Kinetics 1.	

	Time step: 7.8894e+06 seconds  (Incremented time: 3.9447e+07 seconds)

	Rate name       Delta Moles Total Moles   Reactant        Coefficient

	Albite           -2.873e-06   9.849e-04   NaAlSi3O8                 1

-------------------------------Phase assemblage--------------------------------

                                                      Moles in assemblage
Phase               SI  log IAP  log K(T, P)   Initial       Final       Delta

CO2(g)           -3.50    -4.97     -1.47    1.000e+01   1.000e+01  -1.135e-06
O2(g)            -0.70    -3.59     -2.89    1.000e+01   1.000e+01   2.979e-10

-----------------------------Solution composition------------------------------

	Elements           Molality       Moles

	Al                1.506e-05   1.506e-05
	C                 2.298e-05   2.298e-05
	Na                1.506e-05   1.506e-05
	Si                4.519e-05   4.519e-05

----------------------------Description of solution----------------------------

                                       pH  =   6.405      Charge balance
                                       pe  =  14.217      Adjusted to redox equilibrium
      Specific Conductance (µS/cm,  25°C)  = 1
                          Density (g/cm³)  =   0.99705
                               Volume (L)  =   1.00297
                        Activity of water  =   1.000
                 Ionic strength (mol/kgw)  =   2.092e-05
                       Mass of water (kg)  =   1.000e+00
                 Total alkalinity (eq/kg)  =   6.026e-05
                       Total CO2 (mol/kg)  =   2.298e-05
                         Temperature (°C)  =  25.00
                  Electrical balance (eq)  =  -1.217e-09
 Percent error, 100*(Cat-|An|)/(Cat+|An|)  =  -0.00
                               Iterations  =  12
                                  Total H  = 1.110124e+02
                                  Total O  = 5.550689e+01

----------------------------Distribution of species----------------------------

                                               Log       Log       Log    mole V
   Species          Molality    Activity  Molality  Activity     Gamma   cm³/mol

   H+              3.959e-07   3.938e-07    -6.402    -6.405    -0.002      0.00
   OH-             2.584e-08   2.570e-08    -7.588    -7.590    -0.002     -4.13
   H2O             5.551e+01   1.000e+00     1.744    -0.000     0.000     18.07
Al            1.506e-05
   Al(OH)4-        8.388e-06   8.344e-06    -5.076    -5.079    -0.002     (0)  
   Al(OH)2+        4.684e-06   4.659e-06    -5.329    -5.332    -0.002     (0)  
   Al(OH)3         1.743e-06   1.743e-06    -5.759    -5.759     0.000     (0)  
   AlOH+2          2.391e-07   2.341e-07    -6.621    -6.631    -0.009    -27.86
   Al+3            9.733e-09   9.280e-09    -8.012    -8.032    -0.021    -42.50
C(-4)         0.000e+00
   CH4             0.000e+00   0.000e+00  -145.553  -145.553     0.000     35.46
C(4)          2.298e-05
   HCO3-           1.222e-05   1.215e-05    -4.913    -4.915    -0.002     24.66
   CO2             1.076e-05   1.076e-05    -4.968    -4.968     0.000     34.43
   CO3-2           1.479e-09   1.447e-09    -8.830    -8.839    -0.009     -5.37
   NaHCO3          1.024e-10   1.024e-10    -9.990    -9.990     0.000      1.80
   (CO2)2          2.125e-12   2.125e-12   -11.673   -11.673     0.000     68.87
   NaCO3-          4.060e-13   4.039e-13   -12.391   -12.394    -0.002     -1.06
H(0)          0.000e+00
   H2              0.000e+00   0.000e+00   -44.394   -44.394     0.000     28.61
Na            1.506e-05
   Na+             1.506e-05   1.498e-05    -4.822    -4.824    -0.002     -1.52
   NaHCO3          1.024e-10   1.024e-10    -9.990    -9.990     0.000      1.80
   NaCO3-          4.060e-13   4.039e-13   -12.391   -12.394    -0.002     -1.06
   NaOH            3.851e-23   3.851e-23   -22.414   -22.414     0.000     (0)  
O(0)          5.112e-04
   O2              2.556e-04   2.556e-04    -3.592    -3.592     0.000     30.40
Si            4.519e-05
   H4SiO4          4.518e-05   4.518e-05    -4.345    -4.345     0.000     52.08
   H3SiO4-         1.701e-08   1.692e-08    -7.769    -7.772    -0.002     27.95
   H2SiO4-2        2.985e-15   2.922e-15   -14.525   -14.534    -0.009     (0)  

------------------------------Saturation indices-------------------------------

  Phase               SI** log IAP   log K(298 K,   1 atm)

  Al(OH)3(a)        0.38     11.18   10.80  Al(OH)3
  Albite           -4.94    -22.94  -18.00  NaAlSi3O8
  CH4(g)         -142.75   -145.55   -2.80  CH4
  Chalcedony       -0.79     -4.35   -3.55  SiO2
  CO2(g)           -3.50     -4.97   -1.47  CO2	 Pressure   0.0 atm, phi 1.000
  Gibbsite          3.07     11.18    8.11  Al(OH)3
  H2(g)           -41.29    -44.39   -3.10  H2
  H2O(g)           -1.50     -0.00    1.50  H2O
  Kaolinite         6.24     13.67    7.43  Al2Si2O5(OH)4
  O2(g)            -0.70     -3.59   -2.89  O2	 Pressure   0.2 atm, phi 1.000
  Quartz           -0.36     -4.35   -3.98  SiO2
  SiO2(a)          -1.63     -4.35   -2.71  SiO2

**For a gas, SI = log10(fugacity). Fugacity = pressure * phi / 1 atm.
  For ideal gases, phi = 1.

Reaction step 6.

Using solution 1.	
Using pure phase assemblage 1.	
Using kinetics 1.	

Kinetics 1.	

	Time step: 7.8894e+06 seconds  (Incremented time: 4.73364e+07 seconds)

	Rate name       Delta Moles Total Moles   Reactant        Coefficient

	Albite           -2.846e-06   9.821e-04   NaAlSi3O8                 1

-------------------------------Phase assemblage--------------------------------

                                                      Moles in assemblage
Phase               SI  log IAP  log K(T, P)   Initial       Final       Delta

CO2(g)           -3.50    -4.97     -1.47    1.000e+01   1.000e+01  -9.921e-07
O2(g)            -0.70    -3.59     -2.89    1.000e+01   1.000e+01   2.920e-10

-----------------------------Solution composition------------------------------

	Elements           Molality       Moles

	Al                1.791e-05   1.791e-05
	C                 2.397e-05   2.397e-05
	Na                1.791e-05   1.791e-05
	Si                5.373e-05   5.373e-05

----------------------------Description of solution----------------------------

                                       pH  =   6.438      Charge balance
                                       pe  =  14.183      Adjusted to redox equilibrium
      Specific Conductance (µS/cm,  25°C)  = 1
                          Density (g/cm³)  =   0.99705
                               Volume (L)  =   1.00297
                        Activity of water  =   1.000
                 Ionic strength (mol/kgw)  =   2.411e-05
                       Mass of water (kg)  =   1.000e+00
                 Total alkalinity (eq/kg)  =   7.164e-05
                       Total CO2 (mol/kg)  =   2.397e-05
                         Temperature (°C)  =  25.00
                  Electrical balance (eq)  =  -1.217e-09
 Percent error, 100*(Cat-|An|)/(Cat+|An|)  =  -0.00
                               Iterations  =  12
                                  Total H  = 1.110124e+02
                                  Total O  = 5.550692e+01

----------------------------Distribution of species----------------------------

                                               Log       Log       Log    mole V
   Species          Molality    Activity  Molality  Activity     Gamma   cm³/mol

   H+              3.664e-07   3.644e-07    -6.436    -6.438    -0.002      0.00
   OH-             2.794e-08   2.778e-08    -7.554    -7.556    -0.002     -4.13
   H2O             5.551e+01   1.000e+00     1.744    -0.000     0.000     18.07
Al            1.791e-05
   Al(OH)4-        1.057e-05   1.051e-05    -4.976    -4.978    -0.002     (0)  
   Al(OH)2+        5.055e-06   5.026e-06    -5.296    -5.299    -0.002     (0)  
   Al(OH)3         2.033e-06   2.033e-06    -5.692    -5.692     0.000     (0)  
   AlOH+2          2.391e-07   2.337e-07    -6.621    -6.631    -0.010    -27.86
   Al+3            9.021e-09   8.571e-09    -8.045    -8.067    -0.022    -42.49
C(-4)         0.000e+00
   CH4             0.000e+00   0.000e+00  -145.553  -145.553     0.000     35.46
C(4)          2.397e-05
   HCO3-           1.321e-05   1.314e-05    -4.879    -4.882    -0.002     24.66
   CO2             1.076e-05   1.076e-05    -4.968    -4.968     0.000     34.43
   CO3-2           1.730e-09   1.691e-09    -8.762    -8.772    -0.010     -5.37
   NaHCO3          1.315e-10   1.315e-10    -9.881    -9.881     0.000      1.80
   (CO2)2          2.125e-12   2.125e-12   -11.673   -11.673     0.000     68.87
   NaCO3-          5.638e-13   5.606e-13   -12.249   -12.251    -0.002     -1.06
H(0)          0.000e+00
   H2              0.000e+00   0.000e+00   -44.394   -44.394     0.000     28.61
Na            1.791e-05
   Na+             1.791e-05   1.781e-05    -4.747    -4.749    -0.002     -1.52
   NaHCO3          1.315e-10   1.315e-10    -9.881    -9.881     0.000      1.80
   NaCO3-          5.638e-13   5.606e-13   -12.249   -12.251    -0.002     -1.06
   NaOH            4.947e-23   4.947e-23   -22.306   -22.306     0.000     (0)  
O(0)          5.112e-04
   O2              2.556e-04   2.556e-04    -3.592    -3.592     0.000     30.40
Si            5.373e-05
   H4SiO4          5.371e-05   5.371e-05    -4.270    -4.270     0.000     52.08
   H3SiO4-         2.186e-08   2.174e-08    -7.660    -7.663    -0.002     27.95
   H2SiO4-2        4.152e-15   4.058e-15   -14.382   -14.392    -0.010     (0)  

------------------------------Saturation indices-------------------------------

  Phase               SI** log IAP   log K(298 K,   1 atm)

  Al(OH)3(a)        0.45     11.25   10.80  Al(OH)3
  Albite           -4.54    -22.54  -18.00  NaAlSi3O8
  CH4(g)         -142.75   -145.55   -2.80  CH4
  Chalcedony       -0.72     -4.27   -3.55  SiO2
  CO2(g)           -3.50     -4.97   -1.47  CO2	 Pressure   0.0 atm, phi 1.000
  Gibbsite          3.14     11.25    8.11  Al(OH)3
  H2(g)           -41.29    -44.39   -3.10  H2
  H2O(g)           -1.50     -0.00    1.50  H2O
  Kaolinite         6.52     13.96    7.43  Al2Si2O5(OH)4
  O2(g)            -0.70     -3.59   -2.89  O2	 Pressure   0.2 atm, phi 1.000
  Quartz           -0.29     -4.27   -3.98  SiO2
  SiO2(a)          -1.56     -4.27   -2.71  SiO2

**For a gas, SI = log10(fugacity). Fugacity = pressure * phi / 1 atm.
  For ideal gases, phi = 1.

Reaction step 7.

Using solution 1.	
Using pure phase assemblage 1.	
Using kinetics 1.	

Kinetics 1.	

	Time step: 7.8894e+06 seconds  (Incremented time: 5.52258e+07 seconds)

	Rate name       Delta Moles Total Moles   Reactant        Coefficient

	Albite           -2.825e-06   9.793e-04   NaAlSi3O8                 1

-------------------------------Phase assemblage--------------------------------

                                                      Moles in assemblage
Phase               SI  log IAP  log K(T, P)   Initial       Final       Delta

CO2(g)           -3.50    -4.97     -1.47    1.000e+01   1.000e+01  -8.870e-07
O2(g)            -0.70    -3.59     -2.89    1.000e+01   1.000e+01   2.876e-10

-----------------------------Solution composition------------------------------

	Elements           Molality       Moles

	Al                2.074e-05   2.074e-05
	C                 2.486e-05   2.486e-05
	Na                2.074e-05   2.074e-05
	Si                6.221e-05   6.221e-05

----------------------------Description of solution----------------------------

                                       pH  =   6.467      Charge balance
                                       pe  =  14.155      Adjusted to redox equilibrium
      Specific Conductance (µS/cm,  25°C)  = 1
                          Density (g/cm³)  =   0.99705
                               Volume (L)  =   1.00297
                        Activity of water  =   1.000
                 Ionic strength (mol/kgw)  =   2.723e-05
                       Mass of water (kg)  =   1.000e+00
                 Total alkalinity (eq/kg)  =   8.294e-05
                       Total CO2 (mol/kg)  =   2.486e-05
                         Temperature (°C)  =  25.00
                  Electrical balance (eq)  =  -1.217e-09
 Percent error, 100*(Cat-|An|)/(Cat+|An|)  =  -0.00
                               Iterations  =  11
                                  Total H  = 1.110124e+02
                                  Total O  = 5.550694e+01

----------------------------Distribution of species----------------------------

                                               Log       Log       Log    mole V
   Species          Molality    Activity  Molality  Activity     Gamma   cm³/mol

   H+              3.436e-07   3.416e-07    -6.464    -6.467    -0.003      0.00
   OH-             2.981e-08   2.963e-08    -7.526    -7.528    -0.003     -4.13
   H2O             5.551e+01   1.000e+00     1.744    -0.000     0.000     18.07
Al            2.074e-05
   Al(OH)4-        1.280e-05   1.273e-05    -4.893    -4.895    -0.003     (0)  
   Al(OH)2+        5.379e-06   5.346e-06    -5.269    -5.272    -0.003     (0)  
   Al(OH)3         2.306e-06   2.306e-06    -5.637    -5.637     0.000     (0)  
   AlOH+2          2.387e-07   2.330e-07    -6.622    -6.633    -0.011    -27.85
   Al+3            8.458e-09   8.011e-09    -8.073    -8.096    -0.024    -42.49
C(-4)         0.000e+00
   CH4             0.000e+00   0.000e+00  -145.553  -145.553     0.000     35.46
C(4)          2.486e-05
   HCO3-           1.410e-05   1.401e-05    -4.851    -4.853    -0.003     24.66
   CO2             1.076e-05   1.076e-05    -4.968    -4.968     0.000     34.43
   CO3-2           1.971e-09   1.924e-09    -8.705    -8.716    -0.011     -5.37
   NaHCO3          1.624e-10   1.624e-10    -9.789    -9.789     0.000      1.80
   (CO2)2          2.125e-12   2.125e-12   -11.673   -11.673     0.000     68.87
   NaCO3-          7.428e-13   7.383e-13   -12.129   -12.132    -0.003     -1.06
H(0)          0.000e+00
   H2              0.000e+00   0.000e+00   -44.394   -44.394     0.000     28.61
Na            2.074e-05
   Na+             2.074e-05   2.061e-05    -4.683    -4.686    -0.003     -1.52
   NaHCO3          1.624e-10   1.624e-10    -9.789    -9.789     0.000      1.80
   NaCO3-          7.428e-13   7.383e-13   -12.129   -12.132    -0.003     -1.06
   NaOH            6.107e-23   6.107e-23   -22.214   -22.214     0.000     (0)  
O(0)          5.112e-04
   O2              2.556e-04   2.556e-04    -3.592    -3.592     0.000     30.40
Si            6.221e-05
   H4SiO4          6.218e-05   6.218e-05    -4.206    -4.206     0.000     52.08
   H3SiO4-         2.701e-08   2.684e-08    -7.569    -7.571    -0.003     27.95
   H2SiO4-2        5.477e-15   5.346e-15   -14.261   -14.272    -0.011     (0)  

------------------------------Saturation indices-------------------------------

  Phase               SI** log IAP   log K(298 K,   1 atm)

  Al(OH)3(a)        0.50     11.30   10.80  Al(OH)3
  Albite           -4.20    -22.20  -18.00  NaAlSi3O8
  CH4(g)         -142.75   -145.55   -2.80  CH4
  Chalcedony       -0.66     -4.21   -3.55  SiO2
  CO2(g)           -3.50     -4.97   -1.47  CO2	 Pressure   0.0 atm, phi 1.000
  Gibbsite          3.19     11.30    8.11  Al(OH)3
  H2(g)           -41.29    -44.39   -3.10  H2
  H2O(g)           -1.50     -0.00    1.50  H2O
  Kaolinite         6.76     14.19    7.43  Al2Si2O5(OH)4
  O2(g)            -0.70     -3.59   -2.89  O2	 Pressure   0.2 atm, phi 1.000
  Quartz           -0.23     -4.21   -3.98  SiO2
  SiO2(a)          -1.49     -4.21   -2.71  SiO2

**For a gas, SI = log10(fugacity). Fugacity = pressure * phi / 1 atm.
  For ideal gases, phi = 1.

Reaction step 8.

Using solution 1.	
Using pure phase assemblage 1.	
Using kinetics 1.	

Kinetics 1.	

	Time step: 7.8894e+06 seconds  (Incremented time: 6.31152e+07 seconds)

	Rate name       Delta Moles Total Moles   Reactant        Coefficient

	Albite           -2.808e-06   9.765e-04   NaAlSi3O8                 1

-------------------------------Phase assemblage--------------------------------

                                                      Moles in assemblage
Phase               SI  log IAP  log K(T, P)   Initial       Final       Delta

CO2(g)           -3.50    -4.97     -1.47    1.000e+01   1.000e+01  -8.062e-07
O2(g)            -0.70    -3.59     -2.89    1.000e+01   1.000e+01   2.842e-10

-----------------------------Solution composition------------------------------

	Elements           Molality       Moles

	Al                2.354e-05   2.354e-05
	C                 2.567e-05   2.567e-05
	Na                2.354e-05   2.354e-05
	Si                7.063e-05   7.063e-05

----------------------------Description of solution----------------------------

                                       pH  =   6.491      Charge balance
                                       pe  =  14.131      Adjusted to redox equilibrium
      Specific Conductance (µS/cm,  25°C)  = 1
                          Density (g/cm³)  =   0.99705
                               Volume (L)  =   1.00297
                        Activity of water  =   1.000
                 Ionic strength (mol/kgw)  =   3.030e-05
                       Mass of water (kg)  =   1.000e+00
                 Total alkalinity (eq/kg)  =   9.417e-05
                       Total CO2 (mol/kg)  =   2.567e-05
                         Temperature (°C)  =  25.00
                  Electrical balance (eq)  =  -1.217e-09
 Percent error, 100*(Cat-|An|)/(Cat+|An|)  =  -0.00
                               Iterations  =  11
                                  Total H  = 1.110124e+02
                                  Total O  = 5.550697e+01

----------------------------Distribution of species----------------------------

                                               Log       Log       Log    mole V
   Species          Molality    Activity  Molality  Activity     Gamma   cm³/mol

   H+              3.253e-07   3.232e-07    -6.488    -6.491    -0.003      0.00
   OH-             3.152e-08   3.132e-08    -7.501    -7.504    -0.003     -4.13
   H2O             5.551e+01   1.000e+00     1.744    -0.000     0.000     18.07
Al            2.354e-05
   Al(OH)4-        1.506e-05   1.497e-05    -4.822    -4.825    -0.003     (0)  
   Al(OH)2+        5.666e-06   5.630e-06    -5.247    -5.249    -0.003     (0)  
   Al(OH)3         2.567e-06   2.567e-06    -5.591    -5.591     0.000     (0)  
   AlOH+2          2.382e-07   2.322e-07    -6.623    -6.634    -0.011    -27.85
   Al+3            7.999e-09   7.554e-09    -8.097    -8.122    -0.025    -42.49
C(-4)         0.000e+00
   CH4             0.000e+00   0.000e+00  -145.553  -145.553     0.000     35.46
C(4)          2.567e-05
   HCO3-           1.490e-05   1.481e-05    -4.827    -4.829    -0.003     24.66
   CO2             1.076e-05   1.076e-05    -4.968    -4.968     0.000     34.43
   CO3-2           2.204e-09   2.149e-09    -8.657    -8.668    -0.011     -5.37
   NaHCO3          1.948e-10   1.948e-10    -9.710    -9.710     0.000      1.80
   (CO2)2          2.125e-12   2.125e-12   -11.673   -11.673     0.000     68.87
   NaCO3-          9.420e-13   9.360e-13   -12.026   -12.029    -0.003     -1.06
H(0)          0.000e+00
   H2              0.000e+00   0.000e+00   -44.394   -44.394     0.000     28.61
Na            2.354e-05
   Na+             2.354e-05   2.339e-05    -4.628    -4.631    -0.003     -1.52
   NaHCO3          1.948e-10   1.948e-10    -9.710    -9.710     0.000      1.80
   NaCO3-          9.420e-13   9.360e-13   -12.026   -12.029    -0.003     -1.06
   NaOH            7.326e-23   7.326e-23   -22.135   -22.135     0.000     (0)  
O(0)          5.112e-04
   O2              2.556e-04   2.556e-04    -3.592    -3.592     0.000     30.40
Si            7.063e-05
   H4SiO4          7.060e-05   7.060e-05    -4.151    -4.151     0.000     52.08
   H3SiO4-         3.242e-08   3.221e-08    -7.489    -7.492    -0.003     27.95
   H2SiO4-2        6.955e-15   6.779e-15   -14.158   -14.169    -0.011     (0)  

------------------------------Saturation indices-------------------------------

  Phase               SI** log IAP   log K(298 K,   1 atm)

  Al(OH)3(a)        0.55     11.35   10.80  Al(OH)3
  Albite           -3.91    -21.91  -18.00  NaAlSi3O8
  CH4(g)         -142.75   -145.55   -2.80  CH4
  Chalcedony       -0.60     -4.15   -3.55  SiO2
  CO2(g)           -3.50     -4.97   -1.47  CO2	 Pressure   0.0 atm, phi 1.000
  Gibbsite          3.24     11.35    8.11  Al(OH)3
  H2(g)           -41.29    -44.39   -3.10  H2
  H2O(g)           -1.50     -0.00    1.50  H2O
  Kaolinite         6.96     14.40    7.43  Al2Si2O5(OH)4
  O2(g)            -0.70     -3.59   -2.89  O2	 Pressure   0.2 atm, phi 1.000
  Quartz           -0.17     -4.15   -3.98  SiO2
  SiO2(a)          -1.44     -4.15   -2.71  SiO2

**For a gas, SI = log10(fugacity). Fugacity = pressure * phi / 1 atm.
  For ideal gases, phi = 1.

Reaction step 9.

Using solution 1.	
Using pure phase assemblage 1.	
Using kinetics 1.	

Kinetics 1.	

	Time step: 7.8894e+06 seconds  (Incremented time: 7.10046e+07 seconds)

	Rate name       Delta Moles Total Moles   Reactant        Coefficient

	Albite           -2.793e-06   9.737e-04   NaAlSi3O8                 1

-------------------------------Phase assemblage--------------------------------

                                                      Moles in assemblage
Phase               SI  log IAP  log K(T, P)   Initial       Final       Delta

CO2(g)           -3.50    -4.97     -1.47    1.000e+01   1.000e+01  -7.418e-07
O2(g)            -0.70    -3.59     -2.89    1.000e+01   1.000e+01   2.813e-10

-----------------------------Solution composition------------------------------

	Elements           Molality       Moles

	Al                2.634e-05   2.634e-05
	C                 2.641e-05   2.641e-05
	Na                2.634e-05   2.634e-05
	Si                7.901e-05   7.901e-05

----------------------------Description of solution----------------------------

                                       pH  =   6.511      Charge balance
                                       pe  =  14.110      Adjusted to redox equilibrium
      Specific Conductance (µS/cm,  25°C)  = 2
                          Density (g/cm³)  =   0.99705
                               Volume (L)  =   1.00297
                        Activity of water  =   1.000
                 Ionic strength (mol/kgw)  =   3.333e-05
                       Mass of water (kg)  =   1.000e+00
                 Total alkalinity (eq/kg)  =   1.053e-04
                       Total CO2 (mol/kg)  =   2.641e-05
                         Temperature (°C)  =  25.00
                  Electrical balance (eq)  =  -1.217e-09
 Percent error, 100*(Cat-|An|)/(Cat+|An|)  =  -0.00
                               Iterations  =  11
                                  Total H  = 1.110124e+02
                                  Total O  = 5.550699e+01

----------------------------Distribution of species----------------------------

                                               Log       Log       Log    mole V
   Species          Molality    Activity  Molality  Activity     Gamma   cm³/mol

   H+              3.100e-07   3.080e-07    -6.509    -6.511    -0.003      0.00
   OH-             3.309e-08   3.287e-08    -7.480    -7.483    -0.003     -4.13
   H2O             5.551e+01   1.000e+00     1.744    -0.000     0.000     18.07
Al            2.634e-05
   Al(OH)4-        1.735e-05   1.723e-05    -4.761    -4.764    -0.003     (0)  
   Al(OH)2+        5.925e-06   5.886e-06    -5.227    -5.230    -0.003     (0)  
   Al(OH)3         2.816e-06   2.816e-06    -5.550    -5.550     0.000     (0)  
   AlOH+2          2.376e-07   2.313e-07    -6.624    -6.636    -0.012    -27.85
   Al+3            7.614e-09   7.171e-09    -8.118    -8.144    -0.026    -42.49
C(-4)         0.000e+00
   CH4             0.000e+00   0.000e+00  -145.553  -145.553     0.000     35.46
C(4)          2.641e-05
   HCO3-           1.564e-05   1.554e-05    -4.806    -4.809    -0.003     24.66
   CO2             1.076e-05   1.076e-05    -4.968    -4.968     0.000     34.43
   CO3-2           2.431e-09   2.366e-09    -8.614    -8.626    -0.012     -5.37
   NaHCO3          2.286e-10   2.286e-10    -9.641    -9.641     0.000      1.80
   (CO2)2          2.125e-12   2.125e-12   -11.673   -11.673     0.000     68.87
   NaCO3-          1.160e-12   1.153e-12   -11.935   -11.938    -0.003     -1.06
H(0)          0.000e+00
   H2              0.000e+00   0.000e+00   -44.394   -44.394     0.000     28.61
Na            2.634e-05
   Na+             2.634e-05   2.616e-05    -4.579    -4.582    -0.003     -1.51
   NaHCO3          2.286e-10   2.286e-10    -9.641    -9.641     0.000      1.80
   NaCO3-          1.160e-12   1.153e-12   -11.935   -11.938    -0.003     -1.06
   NaOH            8.597e-23   8.597e-23   -22.066   -22.066     0.000     (0)  
O(0)          5.112e-04
   O2              2.556e-04   2.556e-04    -3.592    -3.592     0.000     30.40
Si            7.901e-05
   H4SiO4          7.897e-05   7.897e-05    -4.103    -4.103     0.000     52.08
   H3SiO4-         3.806e-08   3.781e-08    -7.419    -7.422    -0.003     27.95
   H2SiO4-2        8.578e-15   8.351e-15   -14.067   -14.078    -0.012     (0)  

------------------------------Saturation indices-------------------------------

  Phase               SI** log IAP   log K(298 K,   1 atm)

  Al(OH)3(a)        0.59     11.39   10.80  Al(OH)3
  Albite           -3.65    -21.65  -18.00  NaAlSi3O8
  CH4(g)         -142.75   -145.55   -2.80  CH4
  Chalcedony       -0.55     -4.10   -3.55  SiO2
  CO2(g)           -3.50     -4.97   -1.47  CO2	 Pressure   0.0 atm, phi 1.000
  Gibbsite          3.28     11.39    8.11  Al(OH)3
  H2(g)           -41.29    -44.39   -3.10  H2
  H2O(g)           -1.50     -0.00    1.50  H2O
  Kaolinite         7.14     14.57    7.43  Al2Si2O5(OH)4
  O2(g)            -0.70     -3.59   -2.89  O2	 Pressure   0.2 atm, phi 1.000
  Quartz           -0.12     -4.10   -3.98  SiO2
  SiO2(a)          -1.39     -4.10   -2.71  SiO2

**For a gas, SI = log10(fugacity). Fugacity = pressure * phi / 1 atm.
  For ideal gases, phi = 1.

Reaction step 10.

Using solution 1.	
Using pure phase assemblage 1.	
Using kinetics 1.	

Kinetics 1.	

	Time step: 7.8894e+06 seconds  (Incremented time: 7.8894e+07 seconds)

	Rate name       Delta Moles Total Moles   Reactant        Coefficient

	Albite           -2.780e-06   9.709e-04   NaAlSi3O8                 1

-------------------------------Phase assemblage--------------------------------

                                                      Moles in assemblage
Phase               SI  log IAP  log K(T, P)   Initial       Final       Delta

CO2(g)           -3.50    -4.97     -1.47    1.000e+01   1.000e+01  -6.891e-07
O2(g)            -0.70    -3.59     -2.89    1.000e+01   1.000e+01   2.789e-10

-----------------------------Solution composition------------------------------

	Elements           Molality       Moles

	Al                2.912e-05   2.912e-05
	C                 2.710e-05   2.710e-05
	Na                2.912e-05   2.912e-05
	Si                8.735e-05   8.735e-05

----------------------------Description of solution----------------------------

                                       pH  =   6.530      Charge balance
                                       pe  =  14.092      Adjusted to redox equilibrium
      Specific Conductance (µS/cm,  25°C)  = 2
                          Density (g/cm³)  =   0.99705
                               Volume (L)  =   1.00297
                        Activity of water  =   1.000
                 Ionic strength (mol/kgw)  =   3.633e-05
                       Mass of water (kg)  =   1.000e+00
                 Total alkalinity (eq/kg)  =   1.165e-04
                       Total CO2 (mol/kg)  =   2.710e-05
                         Temperature (°C)  =  25.00
                  Electrical balance (eq)  =  -1.217e-09
 Percent error, 100*(Cat-|An|)/(Cat+|An|)  =  -0.00
                               Iterations  =  11
                                  Total H  = 1.110124e+02
                                  Total O  = 5.550702e+01

----------------------------Distribution of species----------------------------

                                               Log       Log       Log    mole V
   Species          Molality    Activity  Molality  Activity     Gamma   cm³/mol

   H+              2.971e-07   2.951e-07    -6.527    -6.530    -0.003      0.00
   OH-             3.454e-08   3.430e-08    -7.462    -7.465    -0.003     -4.13
   H2O             5.551e+01   1.000e+00     1.744    -0.000     0.000     18.07
Al            2.912e-05
   Al(OH)4-        1.965e-05   1.952e-05    -4.707    -4.710    -0.003     (0)  
   Al(OH)2+        6.162e-06   6.119e-06    -5.210    -5.213    -0.003     (0)  
   Al(OH)3         3.056e-06   3.056e-06    -5.515    -5.515     0.000     (0)  
   AlOH+2          2.369e-07   2.304e-07    -6.625    -6.638    -0.012    -27.85
   Al+3            7.285e-09   6.843e-09    -8.138    -8.165    -0.027    -42.48
C(-4)         0.000e+00
   CH4             0.000e+00   0.000e+00  -145.553  -145.553     0.000     35.46
C(4)          2.710e-05
   HCO3-           1.633e-05   1.622e-05    -4.787    -4.790    -0.003     24.66
   CO2             1.076e-05   1.076e-05    -4.968    -4.968     0.000     34.43
   CO3-2           2.651e-09   2.578e-09    -8.577    -8.589    -0.012     -5.37
   NaHCO3          2.637e-10   2.637e-10    -9.579    -9.579     0.000      1.80
   (CO2)2          2.125e-12   2.125e-12   -11.673   -11.673     0.000     68.87
   NaCO3-          1.398e-12   1.388e-12   -11.855   -11.858    -0.003     -1.06
H(0)          0.000e+00
   H2              0.000e+00   0.000e+00   -44.394   -44.394     0.000     28.61
Na            2.912e-05
   Na+             2.912e-05   2.891e-05    -4.536    -4.539    -0.003     -1.51
   NaHCO3          2.637e-10   2.637e-10    -9.579    -9.579     0.000      1.80
   NaCO3-          1.398e-12   1.388e-12   -11.855   -11.858    -0.003     -1.06
   NaOH            9.918e-23   9.918e-23   -22.004   -22.004     0.000     (0)  
O(0)          5.112e-04
   O2              2.556e-04   2.556e-04    -3.592    -3.592     0.000     30.40
Si            8.735e-05
   H4SiO4          8.731e-05   8.731e-05    -4.059    -4.059     0.000     52.08
   H3SiO4-         4.394e-08   4.363e-08    -7.357    -7.360    -0.003     27.95
   H2SiO4-2        1.034e-14   1.006e-14   -13.985   -13.997    -0.012     (0)  

------------------------------Saturation indices-------------------------------

  Phase               SI** log IAP   log K(298 K,   1 atm)

  Al(OH)3(a)        0.63     11.43   10.80  Al(OH)3
  Albite           -3.42    -21.43  -18.00  NaAlSi3O8
  CH4(g)         -142.75   -145.55   -2.80  CH4
  Chalcedony       -0.51     -4.06   -3.55  SiO2
  CO2(g)           -3.50     -4.97   -1.47  CO2	 Pressure   0.0 atm, phi 1.000
  Gibbsite          3.32     11.43    8.11  Al(OH)3
  H2(g)           -41.29    -44.39   -3.10  H2
  H2O(g)           -1.50     -0.00    1.50  H2O
  Kaolinite         7.30     14.73    7.43  Al2Si2O5(OH)4
  O2(g)            -0.70     -3.59   -2.89  O2	 Pressure   0.2 atm, phi 1.000
  Quartz           -0.08     -4.06   -3.98  SiO2
  SiO2(a)          -1.35     -4.06   -2.71  SiO2

**For a gas, SI = log10(fugacity). Fugacity = pressure * phi / 1 atm.
  For ideal gases, phi = 1.

Reaction step 11.

Using solution 1.	
Using pure phase assemblage 1.	
Using kinetics 1.	

Kinetics 1.	

	Time step: 7.8894e+06 seconds  (Incremented time: 8.67834e+07 seconds)

	Rate name       Delta Moles Total Moles   Reactant        Coefficient

	Albite           -2.769e-06   9.681e-04   NaAlSi3O8                 1

-------------------------------Phase assemblage--------------------------------

                                                      Moles in assemblage
Phase               SI  log IAP  log K(T, P)   Initial       Final       Delta

CO2(g)           -3.50    -4.97     -1.47    1.000e+01   1.000e+01  -6.450e-07
O2(g)            -0.70    -3.59     -2.89    1.000e+01   1.000e+01   2.769e-10

-----------------------------Solution composition------------------------------

	Elements           Molality       Moles

	Al                3.189e-05   3.189e-05
	C                 2.774e-05   2.774e-05
	Na                3.189e-05   3.189e-05
	Si                9.566e-05   9.566e-05

----------------------------Description of solution----------------------------

                                       pH  =   6.547      Charge balance
                                       pe  =  14.075      Adjusted to redox equilibrium
      Specific Conductance (µS/cm,  25°C)  = 2
                          Density (g/cm³)  =   0.99705
                               Volume (L)  =   1.00297
                        Activity of water  =   1.000
                 Ionic strength (mol/kgw)  =   3.931e-05
                       Mass of water (kg)  =   1.000e+00
                 Total alkalinity (eq/kg)  =   1.275e-04
                       Total CO2 (mol/kg)  =   2.774e-05
                         Temperature (°C)  =  25.00
                  Electrical balance (eq)  =  -1.217e-09
 Percent error, 100*(Cat-|An|)/(Cat+|An|)  =  -0.00
                               Iterations  =  11
                                  Total H  = 1.110124e+02
                                  Total O  = 5.550704e+01

----------------------------Distribution of species----------------------------

                                               Log       Log       Log    mole V
   Species          Molality    Activity  Molality  Activity     Gamma   cm³/mol

   H+              2.860e-07   2.839e-07    -6.544    -6.547    -0.003      0.00
   OH-             3.591e-08   3.565e-08    -7.445    -7.448    -0.003     -4.13
   H2O             5.551e+01   1.000e+00     1.744    -0.000     0.000     18.07
Al            3.189e-05
   Al(OH)4-        2.198e-05   2.182e-05    -4.658    -4.661    -0.003     (0)  
   Al(OH)2+        6.380e-06   6.334e-06    -5.195    -5.198    -0.003     (0)  
   Al(OH)3         3.287e-06   3.287e-06    -5.483    -5.483     0.000     (0)  
   AlOH+2          2.362e-07   2.295e-07    -6.627    -6.639    -0.013    -27.85
   Al+3            7.000e-09   6.559e-09    -8.155    -8.183    -0.028    -42.48
C(-4)         0.000e+00
   CH4             0.000e+00   0.000e+00  -145.553  -145.553     0.000     35.46
C(4)          2.774e-05
   HCO3-           1.698e-05   1.686e-05    -4.770    -4.773    -0.003     24.66
   CO2             1.076e-05   1.076e-05    -4.968    -4.968     0.000     34.43
   CO3-2           2.866e-09   2.784e-09    -8.543    -8.555    -0.013     -5.37
   NaHCO3          3.000e-10   3.000e-10    -9.523    -9.523     0.000      1.80
   (CO2)2          2.125e-12   2.125e-12   -11.673   -11.673     0.000     68.87
   NaCO3-          1.653e-12   1.641e-12   -11.782   -11.785    -0.003     -1.06
H(0)          0.000e+00
   H2              0.000e+00   0.000e+00   -44.394   -44.394     0.000     28.61
Na            3.189e-05
   Na+             3.189e-05   3.165e-05    -4.496    -4.500    -0.003     -1.51
   NaHCO3          3.000e-10   3.000e-10    -9.523    -9.523     0.000      1.80
   NaCO3-          1.653e-12   1.641e-12   -11.782   -11.785    -0.003     -1.06
   NaOH            1.128e-22   1.128e-22   -21.948   -21.948     0.000     (0)  
O(0)          5.112e-04
   O2              2.556e-04   2.556e-04    -3.592    -3.592     0.000     30.40
Si            9.566e-05
   H4SiO4          9.561e-05   9.561e-05    -4.020    -4.020     0.000     52.08
   H3SiO4-         5.001e-08   4.965e-08    -7.301    -7.304    -0.003     27.95
   H2SiO4-2        1.225e-14   1.189e-14   -13.912   -13.925    -0.013     (0)  

------------------------------Saturation indices-------------------------------

  Phase               SI** log IAP   log K(298 K,   1 atm)

  Al(OH)3(a)        0.66     11.46   10.80  Al(OH)3
  Albite           -3.22    -21.22  -18.00  NaAlSi3O8
  CH4(g)         -142.75   -145.55   -2.80  CH4
  Chalcedony       -0.47     -4.02   -3.55  SiO2
  CO2(g)           -3.50     -4.97   -1.47  CO2	 Pressure   0.0 atm, phi 1.000
  Gibbsite          3.35     11.46    8.11  Al(OH)3
  H2(g)           -41.29    -44.39   -3.10  H2
  H2O(g)           -1.50     -0.00    1.50  H2O
  Kaolinite         7.44     14.88    7.43  Al2Si2O5(OH)4
  O2(g)            -0.70     -3.59   -2.89  O2	 Pressure   0.2 atm, phi 1.000
  Quartz           -0.04     -4.02   -3.98  SiO2
  SiO2(a)          -1.31     -4.02   -2.71  SiO2

**For a gas, SI = log10(fugacity). Fugacity = pressure * phi / 1 atm.
  For ideal gases, phi = 1.

Reaction step 12.

Using solution 1.	
Using pure phase assemblage 1.	
Using kinetics 1.	

Kinetics 1.	

	Time step: 7.8894e+06 seconds  (Incremented time: 9.46728e+07 seconds)

	Rate name       Delta Moles Total Moles   Reactant        Coefficient

	Albite           -2.759e-06   9.654e-04   NaAlSi3O8                 1

-------------------------------Phase assemblage--------------------------------

                                                      Moles in assemblage
Phase               SI  log IAP  log K(T, P)   Initial       Final       Delta

CO2(g)           -3.50    -4.97     -1.47    1.000e+01   1.000e+01  -6.074e-07
O2(g)            -0.70    -3.59     -2.89    1.000e+01   1.000e+01   2.751e-10

-----------------------------Solution composition------------------------------

	Elements           Molality       Moles

	Al                3.464e-05   3.464e-05
	C                 2.835e-05   2.835e-05
	Na                3.464e-05   3.464e-05
	Si                1.039e-04   1.039e-04

----------------------------Description of solution----------------------------

                                       pH  =   6.562      Charge balance
                                       pe  =  14.060      Adjusted to redox equilibrium
      Specific Conductance (µS/cm,  25°C)  = 2
                          Density (g/cm³)  =   0.99705
                               Volume (L)  =   1.00297
                        Activity of water  =   1.000
                 Ionic strength (mol/kgw)  =   4.225e-05
                       Mass of water (kg)  =   1.000e+00
                 Total alkalinity (eq/kg)  =   1.386e-04
                       Total CO2 (mol/kg)  =   2.835e-05
                         Temperature (°C)  =  25.00
                  Electrical balance (eq)  =  -1.217e-09
 Percent error, 100*(Cat-|An|)/(Cat+|An|)  =  -0.00
                               Iterations  =  11
                                  Total H  = 1.110124e+02
                                  Total O  = 5.550706e+01

----------------------------Distribution of species----------------------------

                                               Log       Log       Log    mole V
   Species          Molality    Activity  Molality  Activity     Gamma   cm³/mol

   H+              2.763e-07   2.742e-07    -6.559    -6.562    -0.003      0.00
   OH-             3.719e-08   3.691e-08    -7.430    -7.433    -0.003     -4.13
   H2O             5.551e+01   1.000e+00     1.744    -0.000     0.000     18.07
Al            3.464e-05
   Al(OH)4-        2.431e-05   2.413e-05    -4.614    -4.617    -0.003     (0)  
   Al(OH)2+        6.582e-06   6.533e-06    -5.182    -5.185    -0.003     (0)  
   Al(OH)3         3.510e-06   3.510e-06    -5.455    -5.455     0.000     (0)  
   AlOH+2          2.356e-07   2.286e-07    -6.628    -6.641    -0.013    -27.85
   Al+3            6.749e-09   6.309e-09    -8.171    -8.200    -0.029    -42.48
C(-4)         0.000e+00
   CH4             0.000e+00   0.000e+00  -145.553  -145.553     0.000     35.46
C(4)          2.835e-05
   HCO3-           1.759e-05   1.745e-05    -4.755    -4.758    -0.003     24.66
   CO2             1.076e-05   1.076e-05    -4.968    -4.968     0.000     34.43
   CO3-2           3.077e-09   2.985e-09    -8.512    -8.525    -0.013     -5.37
   NaHCO3          3.375e-10   3.375e-10    -9.472    -9.472     0.000      1.80
   (CO2)2          2.125e-12   2.125e-12   -11.673   -11.673     0.000     68.87
   NaCO3-          1.926e-12   1.911e-12   -11.715   -11.719    -0.003     -1.06
H(0)          0.000e+00
   H2              0.000e+00   0.000e+00   -44.394   -44.394     0.000     28.61
Na            3.464e-05
   Na+             3.464e-05   3.438e-05    -4.460    -4.464    -0.003     -1.51
   NaHCO3          3.375e-10   3.375e-10    -9.472    -9.472     0.000      1.80
   NaCO3-          1.926e-12   1.911e-12   -11.715   -11.719    -0.003     -1.06
   NaOH            1.269e-22   1.269e-22   -21.896   -21.896     0.000     (0)  
O(0)          5.112e-04
   O2              2.556e-04   2.556e-04    -3.592    -3.592     0.000     30.40
Si            1.039e-04
   H4SiO4          1.039e-04   1.039e-04    -3.983    -3.983     0.000     52.08
   H3SiO4-         5.628e-08   5.586e-08    -7.250    -7.253    -0.003     27.95
   H2SiO4-2        1.428e-14   1.386e-14   -13.845   -13.858    -0.013     (0)  

------------------------------Saturation indices-------------------------------

  Phase               SI** log IAP   log K(298 K,   1 atm)

  Al(OH)3(a)        0.69     11.49   10.80  Al(OH)3
  Albite           -3.03    -21.03  -18.00  NaAlSi3O8
  CH4(g)         -142.75   -145.55   -2.80  CH4
  Chalcedony       -0.43     -3.98   -3.55  SiO2
  CO2(g)           -3.50     -4.97   -1.47  CO2	 Pressure   0.0 atm, phi 1.000
  Gibbsite          3.38     11.49    8.11  Al(OH)3
  H2(g)           -41.29    -44.39   -3.10  H2
  H2O(g)           -1.50     -0.00    1.50  H2O
  Kaolinite         7.57     15.00    7.43  Al2Si2O5(OH)4
  O2(g)            -0.70     -3.59   -2.89  O2	 Pressure   0.2 atm, phi 1.000
  Quartz           -0.00     -3.98   -3.98  SiO2
  SiO2(a)          -1.27     -3.98   -2.71  SiO2

**For a gas, SI = log10(fugacity). Fugacity = pressure * phi / 1 atm.
  For ideal gases, phi = 1.

Reaction step 13.

Using solution 1.	
Using pure phase assemblage 1.	
Using kinetics 1.	

Kinetics 1.	

	Time step: 7.8894e+06 seconds  (Incremented time: 1.02562e+08 seconds)

	Rate name       Delta Moles Total Moles   Reactant        Coefficient

	Albite           -2.752e-06   9.626e-04   NaAlSi3O8                 1

-------------------------------Phase assemblage--------------------------------

                                                      Moles in assemblage
Phase               SI  log IAP  log K(T, P)   Initial       Final       Delta

CO2(g)           -3.50    -4.97     -1.47    1.000e+01   1.000e+01  -5.755e-07
O2(g)            -0.70    -3.59     -2.89    1.000e+01   1.000e+01   2.737e-10

-----------------------------Solution composition------------------------------

	Elements           Molality       Moles

	Al                3.740e-05   3.740e-05
	C                 2.893e-05   2.892e-05
	Na                3.740e-05   3.740e-05
	Si                1.122e-04   1.122e-04

----------------------------Description of solution----------------------------

                                       pH  =   6.576      Charge balance
                                       pe  =  14.046      Adjusted to redox equilibrium
      Specific Conductance (µS/cm,  25°C)  = 2
                          Density (g/cm³)  =   0.99705
                               Volume (L)  =   1.00297
                        Activity of water  =   1.000
                 Ionic strength (mol/kgw)  =   4.518e-05
                       Mass of water (kg)  =   1.000e+00
                 Total alkalinity (eq/kg)  =   1.496e-04
                       Total CO2 (mol/kg)  =   2.893e-05
                         Temperature (°C)  =  25.00
                  Electrical balance (eq)  =  -1.217e-09
 Percent error, 100*(Cat-|An|)/(Cat+|An|)  =  -0.00
                               Iterations  =   5
                                  Total H  = 1.110124e+02
                                  Total O  = 5.550709e+01

----------------------------Distribution of species----------------------------

                                               Log       Log       Log    mole V
   Species          Molality    Activity  Molality  Activity     Gamma   cm³/mol

   H+              2.677e-07   2.656e-07    -6.572    -6.576    -0.003      0.00
   OH-             3.841e-08   3.811e-08    -7.416    -7.419    -0.003     -4.13
   H2O             5.551e+01   1.000e+00     1.744    -0.000     0.000     18.07
Al            3.740e-05
   Al(OH)4-        2.666e-05   2.645e-05    -4.574    -4.578    -0.003     (0)  
   Al(OH)2+        6.771e-06   6.719e-06    -5.169    -5.173    -0.003     (0)  
   Al(OH)3         3.727e-06   3.727e-06    -5.429    -5.429     0.000     (0)  
   AlOH+2          2.349e-07   2.277e-07    -6.629    -6.643    -0.014    -27.85
   Al+3            6.527e-09   6.087e-09    -8.185    -8.216    -0.030    -42.48
C(-4)         0.000e+00
   CH4             0.000e+00   0.000e+00  -145.553  -145.553     0.000     35.46
C(4)          2.893e-05
   HCO3-           1.816e-05   1.802e-05    -4.741    -4.744    -0.003     24.66
   CO2             1.076e-05   1.076e-05    -4.968    -4.968     0.000     34.43
   CO3-2           3.283e-09   3.182e-09    -8.484    -8.497    -0.014     -5.37
   NaHCO3          3.760e-10   3.760e-10    -9.425    -9.425     0.000      1.80
   NaCO3-          2.216e-12   2.198e-12   -11.654   -11.658    -0.003     -1.06
   (CO2)2          2.125e-12   2.125e-12   -11.673   -11.673     0.000     68.87
H(0)          0.000e+00
   H2              0.000e+00   0.000e+00   -44.394   -44.394     0.000     28.61
Na            3.740e-05
   Na+             3.740e-05   3.711e-05    -4.427    -4.431    -0.003     -1.51
   NaHCO3          3.760e-10   3.760e-10    -9.425    -9.425     0.000      1.80
   NaCO3-          2.216e-12   2.198e-12   -11.654   -11.658    -0.003     -1.06
   NaOH            1.414e-22   1.414e-22   -21.850   -21.850     0.000     (0)  
O(0)          5.112e-04
   O2              2.556e-04   2.556e-04    -3.592    -3.592     0.000     30.40
Si            1.122e-04
   H4SiO4          1.121e-04   1.121e-04    -3.950    -3.950     0.000     52.08
   H3SiO4-         6.274e-08   6.225e-08    -7.202    -7.206    -0.003     27.95
   H2SiO4-2        1.645e-14   1.594e-14   -13.784   -13.797    -0.014     (0)  

------------------------------Saturation indices-------------------------------

  Phase               SI** log IAP   log K(298 K,   1 atm)

  Al(OH)3(a)        0.71     11.51   10.80  Al(OH)3
  Albite           -2.86    -20.86  -18.00  NaAlSi3O8
  CH4(g)         -142.75   -145.55   -2.80  CH4
  Chalcedony       -0.40     -3.95   -3.55  SiO2
  CO2(g)           -3.50     -4.97   -1.47  CO2	 Pressure   0.0 atm, phi 1.000
  Gibbsite          3.40     11.51    8.11  Al(OH)3
  H2(g)           -41.29    -44.39   -3.10  H2
  H2O(g)           -1.50     -0.00    1.50  H2O
  Kaolinite         7.69     15.12    7.43  Al2Si2O5(OH)4
  O2(g)            -0.70     -3.59   -2.89  O2	 Pressure   0.2 atm, phi 1.000
  Quartz            0.03     -3.95   -3.98  SiO2
  SiO2(a)          -1.24     -3.95   -2.71  SiO2

**For a gas, SI = log10(fugacity). Fugacity = pressure * phi / 1 atm.
  For ideal gases, phi = 1.

Reaction step 14.

Using solution 1.	
Using pure phase assemblage 1.	
Using kinetics 1.	

Kinetics 1.	

	Time step: 7.8894e+06 seconds  (Incremented time: 1.10452e+08 seconds)

	Rate name       Delta Moles Total Moles   Reactant        Coefficient

	Albite           -2.743e-06   9.599e-04   NaAlSi3O8                 1

-------------------------------Phase assemblage--------------------------------

                                                      Moles in assemblage
Phase               SI  log IAP  log K(T, P)   Initial       Final       Delta

CO2(g)           -3.50    -4.97     -1.47    1.000e+01   1.000e+01  -5.470e-07
O2(g)            -0.70    -3.59     -2.89    1.000e+01   1.000e+01   2.722e-10

-----------------------------Solution composition------------------------------

	Elements           Molality       Moles

	Al                4.014e-05   4.014e-05
	C                 2.947e-05   2.947e-05
	Na                4.014e-05   4.014e-05
	Si                1.204e-04   1.204e-04

----------------------------Description of solution----------------------------

                                       pH  =   6.589      Charge balance
                                       pe  =  14.033      Adjusted to redox equilibrium
      Specific Conductance (µS/cm,  25°C)  = 2
                          Density (g/cm³)  =   0.99705
                               Volume (L)  =   1.00297
                        Activity of water  =   1.000
                 Ionic strength (mol/kgw)  =   4.809e-05
                       Mass of water (kg)  =   1.000e+00
                 Total alkalinity (eq/kg)  =   1.606e-04
                       Total CO2 (mol/kg)  =   2.947e-05
                         Temperature (°C)  =  25.00
                  Electrical balance (eq)  =  -1.217e-09
 Percent error, 100*(Cat-|An|)/(Cat+|An|)  =  -0.00
                               Iterations  =   5
                                  Total H  = 1.110124e+02
                                  Total O  = 5.550711e+01

----------------------------Distribution of species----------------------------

                                               Log       Log       Log    mole V
   Species          Molality    Activity  Molality  Activity     Gamma   cm³/mol

   H+              2.600e-07   2.579e-07    -6.585    -6.589    -0.003      0.00
   OH-             3.957e-08   3.925e-08    -7.403    -7.406    -0.004     -4.13
   H2O             5.551e+01   1.000e+00     1.744    -0.000     0.000     18.07
Al            4.014e-05
   Al(OH)4-        2.901e-05   2.878e-05    -4.537    -4.541    -0.004     (0)  
   Al(OH)2+        6.948e-06   6.893e-06    -5.158    -5.162    -0.003     (0)  
   Al(OH)3         3.938e-06   3.938e-06    -5.405    -5.405     0.000     (0)  
   AlOH+2          2.342e-07   2.268e-07    -6.630    -6.644    -0.014    -27.85
   Al+3            6.327e-09   5.888e-09    -8.199    -8.230    -0.031    -42.48
C(-4)         0.000e+00
   CH4             0.000e+00   0.000e+00  -145.553  -145.553     0.000     35.46
C(4)          2.947e-05
   HCO3-           1.871e-05   1.856e-05    -4.728    -4.731    -0.003     24.66
   CO2             1.076e-05   1.076e-05    -4.968    -4.968     0.000     34.43
   CO3-2           3.485e-09   3.375e-09    -8.458    -8.472    -0.014     -5.37
   NaHCO3          4.155e-10   4.155e-10    -9.381    -9.381     0.000      1.80
   NaCO3-          2.522e-12   2.502e-12   -11.598   -11.602    -0.004     -1.06
   (CO2)2          2.125e-12   2.125e-12   -11.673   -11.673     0.000     68.87
H(0)          0.000e+00
   H2              0.000e+00   0.000e+00   -44.394   -44.394     0.000     28.61
Na            4.014e-05
   Na+             4.014e-05   3.982e-05    -4.396    -4.400    -0.004     -1.51
   NaHCO3          4.155e-10   4.155e-10    -9.381    -9.381     0.000      1.80
   NaCO3-          2.522e-12   2.502e-12   -11.598   -11.602    -0.004     -1.06
   NaOH            1.563e-22   1.563e-22   -21.806   -21.806     0.000     (0)  
O(0)          5.112e-04
   O2              2.556e-04   2.556e-04    -3.592    -3.592     0.000     30.40
Si            1.204e-04
   H4SiO4          1.204e-04   1.204e-04    -3.920    -3.920     0.000     52.08
   H3SiO4-         6.937e-08   6.881e-08    -7.159    -7.162    -0.004     27.95
   H2SiO4-2        1.874e-14   1.815e-14   -13.727   -13.741    -0.014     (0)  

------------------------------Saturation indices-------------------------------

  Phase               SI** log IAP   log K(298 K,   1 atm)

  Al(OH)3(a)        0.74     11.54   10.80  Al(OH)3
  Albite           -2.70    -20.70  -18.00  NaAlSi3O8
  CH4(g)         -142.75   -145.55   -2.80  CH4
  Chalcedony       -0.37     -3.92   -3.55  SiO2
  CO2(g)           -3.50     -4.97   -1.47  CO2	 Pressure   0.0 atm, phi 1.000
  Gibbsite          3.43     11.54    8.11  Al(OH)3
  H2(g)           -41.29    -44.39   -3.10  H2
  H2O(g)           -1.50     -0.00    1.50  H2O
  Kaolinite         7.80     15.23    7.43  Al2Si2O5(OH)4
  O2(g)            -0.70     -3.59   -2.89  O2	 Pressure   0.2 atm, phi 1.000
  Quartz            0.06     -3.92   -3.98  SiO2
  SiO2(a)          -1.21     -3.92   -2.71  SiO2

**For a gas, SI = log10(fugacity). Fugacity = pressure * phi / 1 atm.
  For ideal gases, phi = 1.

Reaction step 15.

Using solution 1.	
Using pure phase assemblage 1.	
Using kinetics 1.	

Kinetics 1.	

	Time step: 7.8894e+06 seconds  (Incremented time: 1.18341e+08 seconds)

	Rate name       Delta Moles Total Moles   Reactant        Coefficient

	Albite           -2.734e-06   9.571e-04   NaAlSi3O8                 1

-------------------------------Phase assemblage--------------------------------

                                                      Moles in assemblage
Phase               SI  log IAP  log K(T, P)   Initial       Final       Delta

CO2(g)           -3.50    -4.97     -1.47    1.000e+01   1.000e+01  -5.218e-07
O2(g)            -0.70    -3.59     -2.89    1.000e+01   1.000e+01   2.709e-10

-----------------------------Solution composition------------------------------

	Elements           Molality       Moles

	Al                4.287e-05   4.287e-05
	C                 2.999e-05   2.999e-05
	Na                4.287e-05   4.287e-05
	Si                1.286e-04   1.286e-04

----------------------------Description of solution----------------------------

                                       pH  =   6.600      Charge balance
                                       pe  =  14.021      Adjusted to redox equilibrium
      Specific Conductance (µS/cm,  25°C)  = 3
                          Density (g/cm³)  =   0.99705
                               Volume (L)  =   1.00297
                        Activity of water  =   1.000
                 Ionic strength (mol/kgw)  =   5.098e-05
                       Mass of water (kg)  =   1.000e+00
                 Total alkalinity (eq/kg)  =   1.715e-04
                       Total CO2 (mol/kg)  =   2.999e-05
                         Temperature (°C)  =  25.00
                  Electrical balance (eq)  =  -1.217e-09
 Percent error, 100*(Cat-|An|)/(Cat+|An|)  =  -0.00
                               Iterations  =   5
                                  Total H  = 1.110124e+02
                                  Total O  = 5.550713e+01

[...]
                        Activity of water  =   1.000
                 Ionic strength (mol/kgw)  =   1.460e-04
                       Mass of water (kg)  =   1.000e+00
                 Total alkalinity (eq/kg)  =   5.390e-04
                       Total CO2 (mol/kg)  =   4.139e-05
                         Temperature (°C)  =  25.00
                  Electrical balance (eq)  =  -1.217e-09
 Percent error, 100*(Cat-|An|)/(Cat+|An|)  =  -0.00
                               Iterations  =   3
                                  Total H  = 1.110124e+02
                                  Total O  = 5.550789e+01

----------------------------Distribution of species----------------------------

                                               Log       Log       Log    mole V
   Species          Molality    Activity  Molality  Activity     Gamma   cm³/mol

   H+              1.607e-07   1.585e-07    -6.794    -6.800    -0.006      0.00
   OH-             6.475e-08   6.386e-08    -7.189    -7.195    -0.006     -4.13
   H2O             5.551e+01   1.000e+00     1.744    -0.000     0.000     18.07
Al            1.347e-04
   Al(OH)4-        1.146e-04   1.131e-04    -3.941    -3.947    -0.006     (0)  
   Al(OH)2+        1.037e-05   1.023e-05    -4.984    -4.990    -0.006     (0)  
   Al(OH)3         9.507e-06   9.508e-06    -5.022    -5.022     0.000     (0)  
   AlOH+2          2.187e-07   2.069e-07    -6.660    -6.684    -0.024    -27.83
   Al+3            3.734e-09   3.301e-09    -8.428    -8.481    -0.054    -42.44
C(-4)         0.000e+00
   CH4             0.000e+00   0.000e+00  -145.553  -145.553     0.000     35.46
C(4)          4.139e-05
   HCO3-           3.062e-05   3.019e-05    -4.514    -4.520    -0.006     24.66
   CO2             1.076e-05   1.076e-05    -4.968    -4.968     0.000     34.43
   CO3-2           9.444e-09   8.933e-09    -8.025    -8.049    -0.024     -5.35
   NaHCO3          2.256e-09   2.256e-09    -8.647    -8.647     0.000      1.80
   NaCO3-          2.241e-11   2.210e-11   -10.649   -10.656    -0.006     -1.05
   (CO2)2          2.125e-12   2.125e-12   -11.673   -11.673     0.000     68.87
H(0)          0.000e+00
   H2              0.000e+00   0.000e+00   -44.394   -44.394     0.000     28.61
Na            1.347e-04
   Na+             1.347e-04   1.329e-04    -3.871    -3.877    -0.006     -1.51
   NaHCO3          2.256e-09   2.256e-09    -8.647    -8.647     0.000      1.80
   NaCO3-          2.241e-11   2.210e-11   -10.649   -10.656    -0.006     -1.05
   NaOH            8.484e-22   8.485e-22   -21.071   -21.071     0.000     (0)  
O(0)          5.112e-04
   O2              2.556e-04   2.556e-04    -3.592    -3.592     0.000     30.40
Si            4.042e-04
   H4SiO4          4.038e-04   4.039e-04    -3.394    -3.394     0.000     52.08
   H3SiO4-         3.810e-07   3.757e-07    -6.419    -6.425    -0.006     27.96
   H2SiO4-2        1.704e-13   1.612e-13   -12.768   -12.793    -0.024     (0)  

------------------------------Saturation indices-------------------------------

  Phase               SI** log IAP   log K(298 K,   1 atm)

  Al(OH)3(a)        1.12     11.92   10.80  Al(OH)3
  Albite           -0.00    -18.00  -18.00  NaAlSi3O8
  CH4(g)         -142.75   -145.55   -2.80  CH4
  Chalcedony        0.16     -3.39   -3.55  SiO2
  CO2(g)           -3.50     -4.97   -1.47  CO2	 Pressure   0.0 atm, phi 1.000
  Gibbsite          3.81     11.92    8.11  Al(OH)3
  H2(g)           -41.29    -44.39   -3.10  H2
  H2O(g)           -1.50     -0.00    1.50  H2O
  Kaolinite         9.61     17.05    7.43  Al2Si2O5(OH)4
  O2(g)            -0.70     -3.59   -2.89  O2	 Pressure   0.2 atm, phi 1.000
  Quartz            0.59     -3.39   -3.98  SiO2
  SiO2(a)          -0.68     -3.39   -2.71  SiO2

**For a gas, SI = log10(fugacity). Fugacity = pressure * phi / 1 atm.
  For ideal gases, phi = 1.

Reaction step 98.

Using solution 1.	
Using pure phase assemblage 1.	
Using kinetics 1.	

Kinetics 1.	

	Time step: 7.8894e+06 seconds  (Incremented time: 7.73161e+08 seconds)

	Rate name       Delta Moles Total Moles   Reactant        Coefficient

	Albite           -1.552e-08   8.652e-04   NaAlSi3O8                 1

-------------------------------Phase assemblage--------------------------------

                                                      Moles in assemblage
Phase               SI  log IAP  log K(T, P)   Initial       Final       Delta

CO2(g)           -3.50    -4.97     -1.47    1.000e+01   1.000e+01  -1.408e-09
O2(g)            -0.70    -3.59     -2.89    1.000e+01   1.000e+01   1.496e-12

-----------------------------Solution composition------------------------------

	Elements           Molality       Moles

	Al                1.348e-04   1.348e-04
	C                 4.139e-05   4.139e-05
	Na                1.348e-04   1.348e-04
	Si                4.043e-04   4.043e-04

----------------------------Description of solution----------------------------

                                       pH  =   6.800      Charge balance
                                       pe  =  13.822      Adjusted to redox equilibrium
      Specific Conductance (µS/cm,  25°C)  = 8
                          Density (g/cm³)  =   0.99708
                               Volume (L)  =   1.00298
                        Activity of water  =   1.000
                 Ionic strength (mol/kgw)  =   1.460e-04
                       Mass of water (kg)  =   1.000e+00
                 Total alkalinity (eq/kg)  =   5.390e-04
                       Total CO2 (mol/kg)  =   4.139e-05
                         Temperature (°C)  =  25.00
                  Electrical balance (eq)  =  -1.217e-09
 Percent error, 100*(Cat-|An|)/(Cat+|An|)  =  -0.00
                               Iterations  =   3
                                  Total H  = 1.110124e+02
                                  Total O  = 5.550789e+01

----------------------------Distribution of species----------------------------

                                               Log       Log       Log    mole V
   Species          Molality    Activity  Molality  Activity     Gamma   cm³/mol

   H+              1.607e-07   1.585e-07    -6.794    -6.800    -0.006      0.00
   OH-             6.476e-08   6.386e-08    -7.189    -7.195    -0.006     -4.13
   H2O             5.551e+01   1.000e+00     1.744    -0.000     0.000     18.07
Al            1.348e-04
   Al(OH)4-        1.147e-04   1.131e-04    -3.941    -3.947    -0.006     (0)  
   Al(OH)2+        1.037e-05   1.023e-05    -4.984    -4.990    -0.006     (0)  
   Al(OH)3         9.508e-06   9.508e-06    -5.022    -5.022     0.000     (0)  
   AlOH+2          2.187e-07   2.069e-07    -6.660    -6.684    -0.024    -27.83
   Al+3            3.734e-09   3.301e-09    -8.428    -8.481    -0.054    -42.44
C(-4)         0.000e+00
   CH4             0.000e+00   0.000e+00  -145.553  -145.553     0.000     35.46
C(4)          4.139e-05
   HCO3-           3.062e-05   3.020e-05    -4.514    -4.520    -0.006     24.66
   CO2             1.076e-05   1.076e-05    -4.968    -4.968     0.000     34.43
   CO3-2           9.445e-09   8.934e-09    -8.025    -8.049    -0.024     -5.35
   NaHCO3          2.256e-09   2.256e-09    -8.647    -8.647     0.000      1.80
   NaCO3-          2.242e-11   2.211e-11   -10.649   -10.655    -0.006     -1.05
   (CO2)2          2.125e-12   2.125e-12   -11.673   -11.673     0.000     68.87
H(0)          0.000e+00
   H2              0.000e+00   0.000e+00   -44.394   -44.394     0.000     28.61
Na            1.348e-04
   Na+             1.348e-04   1.329e-04    -3.870    -3.877    -0.006     -1.51
   NaHCO3          2.256e-09   2.256e-09    -8.647    -8.647     0.000      1.80
   NaCO3-          2.242e-11   2.211e-11   -10.649   -10.655    -0.006     -1.05
   NaOH            8.486e-22   8.486e-22   -21.071   -21.071     0.000     (0)  
O(0)          5.112e-04
   O2              2.556e-04   2.556e-04    -3.592    -3.592     0.000     30.40
Si            4.043e-04
   H4SiO4          4.039e-04   4.039e-04    -3.394    -3.394     0.000     52.08
   H3SiO4-         3.810e-07   3.757e-07    -6.419    -6.425    -0.006     27.96
   H2SiO4-2        1.705e-13   1.613e-13   -12.768   -12.792    -0.024     (0)  

------------------------------Saturation indices-------------------------------

  Phase               SI** log IAP   log K(298 K,   1 atm)

  Al(OH)3(a)        1.12     11.92   10.80  Al(OH)3
  Albite           -0.00    -18.00  -18.00  NaAlSi3O8
  CH4(g)         -142.75   -145.55   -2.80  CH4
  Chalcedony        0.16     -3.39   -3.55  SiO2
  CO2(g)           -3.50     -4.97   -1.47  CO2	 Pressure   0.0 atm, phi 1.000
  Gibbsite          3.81     11.92    8.11  Al(OH)3
  H2(g)           -41.29    -44.39   -3.10  H2
  H2O(g)           -1.50     -0.00    1.50  H2O
  Kaolinite         9.61     17.05    7.43  Al2Si2O5(OH)4
  O2(g)            -0.70     -3.59   -2.89  O2	 Pressure   0.2 atm, phi 1.000
  Quartz            0.59     -3.39   -3.98  SiO2
  SiO2(a)          -0.68     -3.39   -2.71  SiO2

**For a gas, SI = log10(fugacity). Fugacity = pressure * phi / 1 atm.
  For ideal gases, phi = 1.

Reaction step 99.

Using solution 1.	
Using pure phase assemblage 1.	
Using kinetics 1.	

Kinetics 1.	

	Time step: 7.8894e+06 seconds  (Incremented time: 7.81051e+08 seconds)

	Rate name       Delta Moles Total Moles   Reactant        Coefficient

	Albite           -1.399e-08   8.652e-04   NaAlSi3O8                 1

-------------------------------Phase assemblage--------------------------------

                                                      Moles in assemblage
Phase               SI  log IAP  log K(T, P)   Initial       Final       Delta

CO2(g)           -3.50    -4.97     -1.47    1.000e+01   1.000e+01  -1.269e-09
O2(g)            -0.70    -3.59     -2.89    1.000e+01   1.000e+01   1.361e-12

-----------------------------Solution composition------------------------------

	Elements           Molality       Moles

	Al                1.348e-04   1.348e-04
	C                 4.139e-05   4.139e-05
	Na                1.348e-04   1.348e-04
	Si                4.043e-04   4.043e-04

----------------------------Description of solution----------------------------

                                       pH  =   6.800      Charge balance
                                       pe  =  13.822      Adjusted to redox equilibrium
      Specific Conductance (µS/cm,  25°C)  = 8
                          Density (g/cm³)  =   0.99708
                               Volume (L)  =   1.00298
                        Activity of water  =   1.000
                 Ionic strength (mol/kgw)  =   1.460e-04
                       Mass of water (kg)  =   1.000e+00
                 Total alkalinity (eq/kg)  =   5.391e-04
                       Total CO2 (mol/kg)  =   4.139e-05
                         Temperature (°C)  =  25.00
                  Electrical balance (eq)  =  -1.217e-09
 Percent error, 100*(Cat-|An|)/(Cat+|An|)  =  -0.00
                               Iterations  =   3
                                  Total H  = 1.110124e+02
                                  Total O  = 5.550789e+01

----------------------------Distribution of species----------------------------

                                               Log       Log       Log    mole V
   Species          Molality    Activity  Molality  Activity     Gamma   cm³/mol

   H+              1.607e-07   1.585e-07    -6.794    -6.800    -0.006      0.00
   OH-             6.476e-08   6.386e-08    -7.189    -7.195    -0.006     -4.13
   H2O             5.551e+01   1.000e+00     1.744    -0.000     0.000     18.07
Al            1.348e-04
   Al(OH)4-        1.147e-04   1.131e-04    -3.941    -3.947    -0.006     (0)  
   Al(OH)2+        1.037e-05   1.023e-05    -4.984    -4.990    -0.006     (0)  
   Al(OH)3         9.509e-06   9.509e-06    -5.022    -5.022     0.000     (0)  
   AlOH+2          2.187e-07   2.069e-07    -6.660    -6.684    -0.024    -27.83
   Al+3            3.734e-09   3.301e-09    -8.428    -8.481    -0.054    -42.44
C(-4)         0.000e+00
   CH4             0.000e+00   0.000e+00  -145.553  -145.553     0.000     35.46
C(4)          4.139e-05
   HCO3-           3.062e-05   3.020e-05    -4.514    -4.520    -0.006     24.66
   CO2             1.076e-05   1.076e-05    -4.968    -4.968     0.000     34.43
   CO3-2           9.445e-09   8.935e-09    -8.025    -8.049    -0.024     -5.35
   NaHCO3          2.257e-09   2.257e-09    -8.647    -8.647     0.000      1.80
   NaCO3-          2.242e-11   2.211e-11   -10.649   -10.655    -0.006     -1.05
   (CO2)2          2.125e-12   2.125e-12   -11.673   -11.673     0.000     68.87
H(0)          0.000e+00
   H2              0.000e+00   0.000e+00   -44.394   -44.394     0.000     28.61
Na            1.348e-04
   Na+             1.348e-04   1.329e-04    -3.870    -3.876    -0.006     -1.51
   NaHCO3          2.257e-09   2.257e-09    -8.647    -8.647     0.000      1.80
   NaCO3-          2.242e-11   2.211e-11   -10.649   -10.655    -0.006     -1.05
   NaOH            8.487e-22   8.487e-22   -21.071   -21.071     0.000     (0)  
O(0)          5.112e-04
   O2              2.556e-04   2.556e-04    -3.592    -3.592     0.000     30.40
Si            4.043e-04
   H4SiO4          4.039e-04   4.039e-04    -3.394    -3.394     0.000     52.08
   H3SiO4-         3.811e-07   3.758e-07    -6.419    -6.425    -0.006     27.96
   H2SiO4-2        1.705e-13   1.613e-13   -12.768   -12.792    -0.024     (0)  

------------------------------Saturation indices-------------------------------

  Phase               SI** log IAP   log K(298 K,   1 atm)

  Al(OH)3(a)        1.12     11.92   10.80  Al(OH)3
  Albite           -0.00    -18.00  -18.00  NaAlSi3O8
  CH4(g)         -142.75   -145.55   -2.80  CH4
  Chalcedony        0.16     -3.39   -3.55  SiO2
  CO2(g)           -3.50     -4.97   -1.47  CO2	 Pressure   0.0 atm, phi 1.000
  Gibbsite          3.81     11.92    8.11  Al(OH)3
  H2(g)           -41.29    -44.39   -3.10  H2
  H2O(g)           -1.50     -0.00    1.50  H2O
  Kaolinite         9.61     17.05    7.43  Al2Si2O5(OH)4
  O2(g)            -0.70     -3.59   -2.89  O2	 Pressure   0.2 atm, phi 1.000
  Quartz            0.59     -3.39   -3.98  SiO2
  SiO2(a)          -0.68     -3.39   -2.71  SiO2

**For a gas, SI = log10(fugacity). Fugacity = pressure * phi / 1 atm.
  For ideal gases, phi = 1.

Reaction step 100.

Using solution 1.	
Using pure phase assemblage 1.	
Using kinetics 1.	

Kinetics 1.	

	Time step: 7.8894e+06 seconds  (Incremented time: 7.8894e+08 seconds)

	Rate name       Delta Moles Total Moles   Reactant        Coefficient

	Albite           -1.260e-08   8.652e-04   NaAlSi3O8                 1

-------------------------------Phase assemblage--------------------------------

                                                      Moles in assemblage
Phase               SI  log IAP  log K(T, P)   Initial       Final       Delta

CO2(g)           -3.50    -4.97     -1.47    1.000e+01   1.000e+01  -1.144e-09
O2(g)            -0.70    -3.59     -2.89    1.000e+01   1.000e+01   1.245e-12

-----------------------------Solution composition------------------------------

	Elements           Molality       Moles

	Al                1.348e-04   1.348e-04
	C                 4.139e-05   4.139e-05
	Na                1.348e-04   1.348e-04
	Si                4.043e-04   4.043e-04

----------------------------Description of solution----------------------------

                                       pH  =   6.800      Charge balance
                                       pe  =  13.822      Adjusted to redox equilibrium
      Specific Conductance (µS/cm,  25°C)  = 8
                          Density (g/cm³)  =   0.99708
                               Volume (L)  =   1.00298
                        Activity of water  =   1.000
                 Ionic strength (mol/kgw)  =   1.460e-04
                       Mass of water (kg)  =   1.000e+00
                 Total alkalinity (eq/kg)  =   5.391e-04
                       Total CO2 (mol/kg)  =   4.139e-05
                         Temperature (°C)  =  25.00
                  Electrical balance (eq)  =  -1.217e-09
 Percent error, 100*(Cat-|An|)/(Cat+|An|)  =  -0.00
                               Iterations  =   3
                                  Total H  = 1.110124e+02
                                  Total O  = 5.550789e+01

----------------------------Distribution of species----------------------------

                                               Log       Log       Log    mole V
   Species          Molality    Activity  Molality  Activity     Gamma   cm³/mol

   H+              1.607e-07   1.585e-07    -6.794    -6.800    -0.006      0.00
   OH-             6.476e-08   6.386e-08    -7.189    -7.195    -0.006     -4.13
   H2O             5.551e+01   1.000e+00     1.744    -0.000     0.000     18.07
Al            1.348e-04
   Al(OH)4-        1.147e-04   1.131e-04    -3.941    -3.947    -0.006     (0)  
   Al(OH)2+        1.037e-05   1.023e-05    -4.984    -4.990    -0.006     (0)  
   Al(OH)3         9.509e-06   9.510e-06    -5.022    -5.022     0.000     (0)  
   AlOH+2          2.187e-07   2.069e-07    -6.660    -6.684    -0.024    -27.83
   Al+3            3.734e-09   3.300e-09    -8.428    -8.481    -0.054    -42.44
C(-4)         0.000e+00
   CH4             0.000e+00   0.000e+00  -145.553  -145.553     0.000     35.46
C(4)          4.139e-05
   HCO3-           3.062e-05   3.020e-05    -4.514    -4.520    -0.006     24.66
   CO2             1.076e-05   1.076e-05    -4.968    -4.968     0.000     34.43
   CO3-2           9.446e-09   8.936e-09    -8.025    -8.049    -0.024     -5.35
   NaHCO3          2.257e-09   2.257e-09    -8.646    -8.646     0.000      1.80
   NaCO3-          2.243e-11   2.212e-11   -10.649   -10.655    -0.006     -1.05
   (CO2)2          2.125e-12   2.125e-12   -11.673   -11.673     0.000     68.87
H(0)          0.000e+00
   H2              0.000e+00   0.000e+00   -44.394   -44.394     0.000     28.61
Na            1.348e-04
   Na+             1.348e-04   1.329e-04    -3.870    -3.876    -0.006     -1.51
   NaHCO3          2.257e-09   2.257e-09    -8.646    -8.646     0.000      1.80
   NaCO3-          2.243e-11   2.212e-11   -10.649   -10.655    -0.006     -1.05
   NaOH            8.488e-22   8.488e-22   -21.071   -21.071     0.000     (0)  
O(0)          5.112e-04
   O2              2.556e-04   2.556e-04    -3.592    -3.592     0.000     30.40
Si            4.043e-04
   H4SiO4          4.040e-04   4.040e-04    -3.394    -3.394     0.000     52.08
   H3SiO4-         3.811e-07   3.758e-07    -6.419    -6.425    -0.006     27.96
   H2SiO4-2        1.705e-13   1.613e-13   -12.768   -12.792    -0.024     (0)  

------------------------------Saturation indices-------------------------------

  Phase               SI** log IAP   log K(298 K,   1 atm)

  Al(OH)3(a)        1.12     11.92   10.80  Al(OH)3
  Albite           -0.00    -18.00  -18.00  NaAlSi3O8
  CH4(g)         -142.75   -145.55   -2.80  CH4
  Chalcedony        0.16     -3.39   -3.55  SiO2
  CO2(g)           -3.50     -4.97   -1.47  CO2	 Pressure   0.0 atm, phi 1.000
  Gibbsite          3.81     11.92    8.11  Al(OH)3
  H2(g)           -41.29    -44.39   -3.10  H2
  H2O(g)           -1.50     -0.00    1.50  H2O
  Kaolinite         9.61     17.05    7.43  Al2Si2O5(OH)4
  O2(g)            -0.70     -3.59   -2.89  O2	 Pressure   0.2 atm, phi 1.000
  Quartz            0.59     -3.39   -3.98  SiO2
  SiO2(a)          -0.68     -3.39   -2.71  SiO2

**For a gas, SI = log10(fugacity). Fugacity = pressure * phi / 1 atm.
  For ideal gases, phi = 1.

------------------
End of simulation.
------------------

------------------------------------
Reading input data for simulation 2.
------------------------------------

-------------------------------
End of Run after 6.291 Seconds.
-------------------------------

