   Input file: albite_database.phq
  Output file: albite_database.phq.out
Database file: C:\Users\Eirik\Desktop\phreeqc-3.6.2-15100-x64\database\phreeqc.dat

------------------
Reading data base.
------------------

	SOLUTION_MASTER_SPECIES
	SOLUTION_SPECIES
	PHASES
	EXCHANGE_MASTER_SPECIES
	EXCHANGE_SPECIES
	SURFACE_MASTER_SPECIES
	SURFACE_SPECIES
	RATES
	END
------------------------------------
Reading input data for simulation 1.
------------------------------------

	Database file: C:\Users\Eirik\Desktop\phreeqc-3.6.2-15100-x64\database\phreeqc.dat
	SOLUTION 1
		temp 25
		ph 10
	EQUILIBRIUM_PHASES 1
		CO2(g)	-3.5
		O2(g) -0.7
	RATES 1
	Albite
	 start
		1   REM Sverdrup and Warfvinge, 1995, mol m^-2 s^-1
		2   REM PARM(1) = Specific area of Albite m^2/mol Albite
		3   REM PARM(2) = Adjusts lab rate to field rate
		4   REM temp corr: from A&P, p. 162. E (kJ/mol) / R / 2.303 = H in H*(1/T-1/281)
		5   REM Albite parameters
		10  DATA 11.5, 0.5, 4e-6, 0.4, 500e-6, 0.2, 13.7, 0.14, 0.15, 11.8, 0.3
		20  RESTORE 10
		30  READ pK_H, n_H, lim_Al, x_Al, lim_BC, x_BC, pK_H2O, z_Al, z_BC, pK_OH, o_OH
		40  DATA 3500, 2000, 2500, 2000
		50  RESTORE 40
		60  READ e_H, e_H2O, e_OH, e_CO2
		70  pk_CO2 = 13
		80  n_CO2 = 0.6
		100 REM Generic rate follows
		110 dif_temp = 1/TK - 1/281
		120 BC       = ACT("Na+") + ACT("K+") + ACT("Mg+2") + ACT("Ca+2")
		130 REM rate by H+
		140 pk_H     = pk_H + e_H * dif_temp
		150 rate_H   = 10^-pk_H * ACT("H+")^n_H / ((1 + ACT("Al+3") / lim_Al)^x_Al * (1 + BC / lim_BC)^x_BC)
		160 REM rate by hydrolysis
		170 pk_H2O   = pk_H2O + e_H2O * dif_temp
		180 rate_H2O = 10^-pk_H2O / ((1 + ACT("Al+3") / lim_Al)^z_Al * (1 + BC / lim_BC)^z_BC)
		190 REM rate by OH-
		200 pk_OH    = pk_OH + e_OH * dif_temp
		210 rate_OH  = 10^-pk_OH * ACT("OH-")^o_OH
		220 REM rate by CO2
		230 pk_CO2   = pk_CO2 + e_CO2 * dif_temp
		240 rate_CO2 = 10^-pk_CO2 * (SR("CO2(g)"))^n_CO2
		250 rate     = rate_H + rate_H2O + rate_OH + rate_CO2
		260 area     = PARM(1) * M0 *(M/M0)^0.67
		270 rate     = PARM(2) * area * rate * (1-SR("Albite"))
		280 moles    = rate * TIME
		290 SAVE moles
	 end
	KINETICS 1
	Albite
	        m0 1e-3            # 2% Albite, 0.1 mm cubes
	        m  0.1           # Moles per L pore space
	        parms 6.04  0.1    # m^2/mol Albite, fraction adjusts lab rate to field rate
	        time_steps 150 year in 100
	INCREMENTAL_REACTIONS true
	USER_PUNCH 				#Write the simulation time in years to the selected output file
		headings time_yr
		10 PUNCH total_time/3.1536e7 
	SELECTED_OUTPUT 
		file A_db.xls
		reset false
		time true
		kinetic_reactants Albite
		saturation_indices Albite
		step true
		ph true
	USER_GRAPH 2
		-chart_title "Albite saturation with CO2, T=25, gasses in equilibrium, pH = 10"
		-axis_titles "Years" "SR" "Albite remaining (mmol)"
		-headings time SR Albite_remaining
		-initial_solutions  false
		-start
		10 graph_x total_time/3.1536e7 				
		20 graph_y SR("Albite")				
		30 graph_sy KIN("Albite")*1e3			
		-end
	END
-------------------------------------------
Beginning of initial solution calculations.
-------------------------------------------

Initial solution 1.	

-----------------------------Solution composition------------------------------

	Elements           Molality       Moles

	Pure water     

----------------------------Description of solution----------------------------

                                       pH  =  10.000    
                                       pe  =   4.000    
      Specific Conductance (µS/cm,  25°C)  = 20
                          Density (g/cm³)  =   0.99705
                               Volume (L)  =   1.00297
                        Activity of water  =   1.000
                 Ionic strength (mol/kgw)  =   5.103e-05
                       Mass of water (kg)  =   1.000e+00
                 Total alkalinity (eq/kg)  =   1.021e-04
                         Temperature (°C)  =  25.00
                  Electrical balance (eq)  =  -1.021e-04
 Percent error, 100*(Cat-|An|)/(Cat+|An|)  = -100.00
                               Iterations  =   3
                                  Total H  = 1.110125e+02
                                  Total O  = 5.550632e+01

----------------------------Distribution of species----------------------------

                                               Log       Log       Log    mole V
   Species          Molality    Activity  Molality  Activity     Gamma   cm³/mol

   OH-             1.021e-04   1.012e-04    -3.991    -3.995    -0.004     -4.13
   H+              1.008e-10   1.000e-10    -9.996   -10.000    -0.004      0.00
   H2O             5.551e+01   1.000e+00     1.744    -0.000     0.000     18.07
H(0)          1.416e-31
   H2              7.079e-32   7.079e-32   -31.150   -31.150     0.000     28.61
O(0)          1.664e-30
   O2              8.318e-31   8.318e-31   -30.080   -30.080     0.000     30.40

------------------------------Saturation indices-------------------------------

  Phase               SI** log IAP   log K(298 K,   1 atm)

  H2(g)           -28.05    -31.15   -3.10  H2
  H2O(g)           -1.50     -0.00    1.50  H2O
  O2(g)           -27.19    -30.08   -2.89  O2

**For a gas, SI = log10(fugacity). Fugacity = pressure * phi / 1 atm.
  For ideal gases, phi = 1.

-----------------------------------------
Beginning of batch-reaction calculations.
-----------------------------------------

Reaction step 1.

Using solution 1.	
Using pure phase assemblage 1.	
Using kinetics 1.	

Kinetics 1.	

	Time step: 4.73364e+07 seconds  (Incremented time: 4.73364e+07 seconds)

	Rate name       Delta Moles Total Moles   Reactant        Coefficient

	Albite           -6.767e-08   1.000e-01   Albite                    1

-------------------------------Phase assemblage--------------------------------

                                                      Moles in assemblage
Phase               SI  log IAP  log K(T, P)   Initial       Final       Delta

CO2(g)           -3.50    -4.97     -1.47    1.000e+01   1.000e+01  -1.126e-04
O2(g)            -0.70    -3.59     -2.89    1.000e+01   1.000e+01  -2.556e-04

-----------------------------Solution composition------------------------------

	Elements           Molality       Moles

	Al                6.767e-08   6.767e-08
	C                 1.126e-04   1.126e-04
	Na                6.767e-08   6.767e-08
	Si                2.030e-07   2.030e-07

----------------------------Description of solution----------------------------

                                       pH  =   7.324      Charge balance
                                       pe  =  13.298      Adjusted to redox equilibrium
      Specific Conductance (µS/cm,  25°C)  = 4
                          Density (g/cm³)  =   0.99705
                               Volume (L)  =   1.00298
                        Activity of water  =   1.000
                 Ionic strength (mol/kgw)  =   5.125e-05
                       Mass of water (kg)  =   1.000e+00
                 Total alkalinity (eq/kg)  =   1.023e-04
                       Total CO2 (mol/kg)  =   1.126e-04
                         Temperature (°C)  =  25.00
                  Electrical balance (eq)  =  -1.021e-04
 Percent error, 100*(Cat-|An|)/(Cat+|An|)  = -99.77
                               Iterations  =  24
                                  Total H  = 1.110125e+02
                                  Total O  = 5.550706e+01

----------------------------Distribution of species----------------------------

                                               Log       Log       Log    mole V
   Species          Molality    Activity  Molality  Activity     Gamma   cm³/mol

   OH-             2.151e-07   2.133e-07    -6.667    -6.671    -0.004     -4.13
   H+              4.785e-08   4.746e-08    -7.320    -7.324    -0.004      0.00
   H2O             5.551e+01   1.000e+00     1.744    -0.000     0.000     18.07
Al            6.767e-08
   Al(OH)4-        6.550e-08   6.495e-08    -7.184    -7.187    -0.004     (0)  
   Al(OH)3         1.635e-09   1.635e-09    -8.786    -8.786     0.000     (0)  
   Al(OH)2+        5.312e-10   5.268e-10    -9.275    -9.278    -0.004     (0)  
   AlOH+2          3.297e-12   3.190e-12   -11.482   -11.496    -0.014    -27.85
   Al+3            1.641e-14   1.524e-14   -13.785   -13.817    -0.032    -42.47
C(-4)         0.000e+00
   CH4             0.000e+00   0.000e+00  -145.553  -145.553     0.000     35.46
C(4)          1.126e-04
   HCO3-           1.017e-04   1.008e-04    -3.993    -3.996    -0.004     24.66
   CO2             1.076e-05   1.076e-05    -4.968    -4.968     0.000     34.43
   CO3-2           1.030e-07   9.966e-08    -6.987    -7.001    -0.014     -5.37
   NaHCO3          3.805e-12   3.805e-12   -11.420   -11.420     0.000      1.80
   (CO2)2          2.125e-12   2.125e-12   -11.673   -11.673     0.000     68.87
   NaCO3-          1.256e-13   1.245e-13   -12.901   -12.905    -0.004     -1.06
H(0)          0.000e+00
   H2              0.000e+00   0.000e+00   -44.394   -44.394     0.000     28.61
Na            6.767e-08
   Na+             6.766e-08   6.710e-08    -7.170    -7.173    -0.004     -1.51
   NaHCO3          3.805e-12   3.805e-12   -11.420   -11.420     0.000      1.80
   NaCO3-          1.256e-13   1.245e-13   -12.901   -12.905    -0.004     -1.06
   NaOH            1.431e-24   1.431e-24   -23.844   -23.844     0.000     (0)  
O(0)          5.112e-04
   O2              2.556e-04   2.556e-04    -3.592    -3.592     0.000     30.40
Si            2.030e-07
   H4SiO4          2.024e-07   2.024e-07    -6.694    -6.694     0.000     52.08
   H3SiO4-         6.340e-10   6.288e-10    -9.198    -9.202    -0.004     27.95
   H2SiO4-2        9.317e-16   9.013e-16   -15.031   -15.045    -0.014     (0)  

------------------------------Saturation indices-------------------------------

  Phase               SI** log IAP   log K(298 K,   1 atm)

  Al(OH)3(a)       -2.65      8.15   10.80  Al(OH)3
  Albite          -16.44    -34.44  -18.00  NaAlSi3O8
  CH4(g)         -142.75   -145.55   -2.80  CH4
  Chalcedony       -3.14     -6.69   -3.55  SiO2
  CO2(g)           -3.50     -4.97   -1.47  CO2	 Pressure   0.0 atm, phi 1.000
  Gibbsite          0.04      8.15    8.11  Al(OH)3
  H2(g)           -41.29    -44.39   -3.10  H2
  H2O(g)           -1.50     -0.00    1.50  H2O
  Kaolinite        -4.51      2.92    7.43  Al2Si2O5(OH)4
  O2(g)            -0.70     -3.59   -2.89  O2	 Pressure   0.2 atm, phi 1.000
  Quartz           -2.71     -6.69   -3.98  SiO2
  SiO2(a)          -3.98     -6.69   -2.71  SiO2

**For a gas, SI = log10(fugacity). Fugacity = pressure * phi / 1 atm.
  For ideal gases, phi = 1.

Reaction step 2.

Using solution 1.	
Using pure phase assemblage 1.	
Using kinetics 1.	

Kinetics 1.	

	Time step: 4.73364e+07 seconds  (Incremented time: 9.46728e+07 seconds)

	Rate name       Delta Moles Total Moles   Reactant        Coefficient

	Albite           -6.767e-08   1.000e-01   Albite                    1

-------------------------------Phase assemblage--------------------------------

                                                      Moles in assemblage
Phase               SI  log IAP  log K(T, P)   Initial       Final       Delta

CO2(g)           -3.50    -4.97     -1.47    1.000e+01   1.000e+01  -2.063e-09
O2(g)            -0.70    -3.59     -2.89    1.000e+01   1.000e+01   6.501e-12

-----------------------------Solution composition------------------------------

	Elements           Molality       Moles

	Al                1.353e-07   1.353e-07
	C                 1.126e-04   1.126e-04
	Na                1.353e-07   1.353e-07
	Si                4.060e-07   4.060e-07

----------------------------Description of solution----------------------------

                                       pH  =   7.324      Charge balance
                                       pe  =  13.298      Adjusted to redox equilibrium
      Specific Conductance (µS/cm,  25°C)  = 4
                          Density (g/cm³)  =   0.99705
                               Volume (L)  =   1.00298
                        Activity of water  =   1.000
                 Ionic strength (mol/kgw)  =   5.132e-05
                       Mass of water (kg)  =   1.000e+00
                 Total alkalinity (eq/kg)  =   1.026e-04
                       Total CO2 (mol/kg)  =   1.126e-04
                         Temperature (°C)  =  25.00
                  Electrical balance (eq)  =  -1.021e-04
 Percent error, 100*(Cat-|An|)/(Cat+|An|)  = -99.64
                               Iterations  =   7
                                  Total H  = 1.110125e+02
                                  Total O  = 5.550706e+01

----------------------------Distribution of species----------------------------

                                               Log       Log       Log    mole V
   Species          Molality    Activity  Molality  Activity     Gamma   cm³/mol

   OH-             2.151e-07   2.133e-07    -6.667    -6.671    -0.004     -4.13
   H+              4.785e-08   4.746e-08    -7.320    -7.324    -0.004      0.00
   H2O             5.551e+01   1.000e+00     1.744    -0.000     0.000     18.07
Al            1.353e-07
   Al(OH)4-        1.310e-07   1.299e-07    -6.883    -6.886    -0.004     (0)  
   Al(OH)3         3.271e-09   3.271e-09    -8.485    -8.485     0.000     (0)  
   Al(OH)2+        1.062e-09   1.053e-09    -8.974    -8.977    -0.004     (0)  
   AlOH+2          6.594e-12   6.379e-12   -11.181   -11.195    -0.014    -27.85
   Al+3            3.282e-14   3.047e-14   -13.484   -13.516    -0.032    -42.47
C(-4)         0.000e+00
   CH4             0.000e+00   0.000e+00  -145.553  -145.553     0.000     35.46
C(4)          1.126e-04
   HCO3-           1.017e-04   1.009e-04    -3.993    -3.996    -0.004     24.66
   CO2             1.076e-05   1.076e-05    -4.968    -4.968     0.000     34.43
   CO3-2           1.030e-07   9.966e-08    -6.987    -7.001    -0.014     -5.37
   NaHCO3          7.611e-12   7.611e-12   -11.119   -11.119     0.000      1.80
   (CO2)2          2.125e-12   2.125e-12   -11.673   -11.673     0.000     68.87
   NaCO3-          2.511e-13   2.491e-13   -12.600   -12.604    -0.004     -1.06
H(0)          0.000e+00
   H2              0.000e+00   0.000e+00   -44.394   -44.394     0.000     28.61
Na            1.353e-07
   Na+             1.353e-07   1.342e-07    -6.869    -6.872    -0.004     -1.51
   NaHCO3          7.611e-12   7.611e-12   -11.119   -11.119     0.000      1.80
   NaCO3-          2.511e-13   2.491e-13   -12.600   -12.604    -0.004     -1.06
   NaOH            2.862e-24   2.862e-24   -23.543   -23.543     0.000     (0)  
O(0)          5.112e-04
   O2              2.556e-04   2.556e-04    -3.592    -3.592     0.000     30.40
Si            4.060e-07
   H4SiO4          4.047e-07   4.047e-07    -6.393    -6.393     0.000     52.08
   H3SiO4-         1.268e-09   1.258e-09    -8.897    -8.900    -0.004     27.95
   H2SiO4-2        1.864e-15   1.803e-15   -14.730   -14.744    -0.014     (0)  

------------------------------Saturation indices-------------------------------

  Phase               SI** log IAP   log K(298 K,   1 atm)

  Al(OH)3(a)       -2.34      8.46   10.80  Al(OH)3
  Albite          -14.94    -32.94  -18.00  NaAlSi3O8
  CH4(g)         -142.75   -145.55   -2.80  CH4
  Chalcedony       -2.84     -6.39   -3.55  SiO2
  CO2(g)           -3.50     -4.97   -1.47  CO2	 Pressure   0.0 atm, phi 1.000
  Gibbsite          0.35      8.46    8.11  Al(OH)3
  H2(g)           -41.29    -44.39   -3.10  H2
  H2O(g)           -1.50     -0.00    1.50  H2O
  Kaolinite        -3.31      4.12    7.43  Al2Si2O5(OH)4
  O2(g)            -0.70     -3.59   -2.89  O2	 Pressure   0.2 atm, phi 1.000
  Quartz           -2.41     -6.39   -3.98  SiO2
  SiO2(a)          -3.68     -6.39   -2.71  SiO2

**For a gas, SI = log10(fugacity). Fugacity = pressure * phi / 1 atm.
  For ideal gases, phi = 1.

Reaction step 3.

Using solution 1.	
Using pure phase assemblage 1.	
Using kinetics 1.	

Kinetics 1.	

	Time step: 4.73364e+07 seconds  (Incremented time: 1.42009e+08 seconds)

	Rate name       Delta Moles Total Moles   Reactant        Coefficient

	Albite           -6.767e-08   1.000e-01   Albite                    1

-------------------------------Phase assemblage--------------------------------

                                                      Moles in assemblage
Phase               SI  log IAP  log K(T, P)   Initial       Final       Delta

CO2(g)           -3.50    -4.97     -1.47    1.000e+01   1.000e+01  -2.063e-09
O2(g)            -0.70    -3.59     -2.89    1.000e+01   1.000e+01   6.496e-12

-----------------------------Solution composition------------------------------

	Elements           Molality       Moles

	Al                2.030e-07   2.030e-07
	C                 1.126e-04   1.126e-04
	Na                2.030e-07   2.030e-07
	Si                6.090e-07   6.090e-07

----------------------------Description of solution----------------------------

                                       pH  =   7.324      Charge balance
                                       pe  =  13.298      Adjusted to redox equilibrium
      Specific Conductance (µS/cm,  25°C)  = 4
                          Density (g/cm³)  =   0.99705
                               Volume (L)  =   1.00298
                        Activity of water  =   1.000
                 Ionic strength (mol/kgw)  =   5.139e-05
                       Mass of water (kg)  =   1.000e+00
                 Total alkalinity (eq/kg)  =   1.029e-04
                       Total CO2 (mol/kg)  =   1.126e-04
                         Temperature (°C)  =  25.00
                  Electrical balance (eq)  =  -1.021e-04
 Percent error, 100*(Cat-|An|)/(Cat+|An|)  = -99.51
                               Iterations  =   6
                                  Total H  = 1.110125e+02
                                  Total O  = 5.550706e+01

----------------------------Distribution of species----------------------------

                                               Log       Log       Log    mole V
   Species          Molality    Activity  Molality  Activity     Gamma   cm³/mol

   OH-             2.151e-07   2.133e-07    -6.667    -6.671    -0.004     -4.13
   H+              4.785e-08   4.745e-08    -7.320    -7.324    -0.004      0.00
   H2O             5.551e+01   1.000e+00     1.744    -0.000     0.000     18.07
Al            2.030e-07
   Al(OH)4-        1.965e-07   1.949e-07    -6.707    -6.710    -0.004     (0)  
   Al(OH)3         4.906e-09   4.906e-09    -8.309    -8.309     0.000     (0)  
   Al(OH)2+        1.593e-09   1.580e-09    -8.798    -8.801    -0.004     (0)  
   AlOH+2          9.891e-12   9.568e-12   -11.005   -11.019    -0.014    -27.85
   Al+3            4.923e-14   4.571e-14   -13.308   -13.340    -0.032    -42.47
C(-4)         0.000e+00
   CH4             0.000e+00   0.000e+00  -145.553  -145.553     0.000     35.46
C(4)          1.126e-04
   HCO3-           1.017e-04   1.009e-04    -3.993    -3.996    -0.004     24.66
   CO2             1.076e-05   1.076e-05    -4.968    -4.968     0.000     34.43
   CO3-2           1.030e-07   9.967e-08    -6.987    -7.001    -0.014     -5.37
   NaHCO3          1.142e-11   1.142e-11   -10.942   -10.942     0.000      1.80
   (CO2)2          2.125e-12   2.125e-12   -11.673   -11.673     0.000     68.87
   NaCO3-          3.767e-13   3.736e-13   -12.424   -12.428    -0.004     -1.06
H(0)          0.000e+00
   H2              0.000e+00   0.000e+00   -44.394   -44.394     0.000     28.61
Na            2.030e-07
   Na+             2.030e-07   2.013e-07    -6.693    -6.696    -0.004     -1.51
   NaHCO3          1.142e-11   1.142e-11   -10.942   -10.942     0.000      1.80
   NaCO3-          3.767e-13   3.736e-13   -12.424   -12.428    -0.004     -1.06
   NaOH            4.293e-24   4.294e-24   -23.367   -23.367     0.000     (0)  
O(0)          5.112e-04
   O2              2.556e-04   2.556e-04    -3.592    -3.592     0.000     30.40
Si            6.090e-07
   H4SiO4          6.071e-07   6.071e-07    -6.217    -6.217     0.000     52.08
   H3SiO4-         1.902e-09   1.886e-09    -8.721    -8.724    -0.004     27.95
   H2SiO4-2        2.795e-15   2.704e-15   -14.554   -14.568    -0.014     (0)  

------------------------------Saturation indices-------------------------------

  Phase               SI** log IAP   log K(298 K,   1 atm)

  Al(OH)3(a)       -2.17      8.63   10.80  Al(OH)3
  Albite          -14.05    -32.06  -18.00  NaAlSi3O8
  CH4(g)         -142.75   -145.55   -2.80  CH4
  Chalcedony       -2.67     -6.22   -3.55  SiO2
  CO2(g)           -3.50     -4.97   -1.47  CO2	 Pressure   0.0 atm, phi 1.000
  Gibbsite          0.52      8.63    8.11  Al(OH)3
  H2(g)           -41.29    -44.39   -3.10  H2
  H2O(g)           -1.50     -0.00    1.50  H2O
  Kaolinite        -2.61      4.83    7.43  Al2Si2O5(OH)4
  O2(g)            -0.70     -3.59   -2.89  O2	 Pressure   0.2 atm, phi 1.000
  Quartz           -2.24     -6.22   -3.98  SiO2
  SiO2(a)          -3.50     -6.22   -2.71  SiO2

**For a gas, SI = log10(fugacity). Fugacity = pressure * phi / 1 atm.
  For ideal gases, phi = 1.

Reaction step 4.

Using solution 1.	
Using pure phase assemblage 1.	
Using kinetics 1.	

Kinetics 1.	

	Time step: 4.73364e+07 seconds  (Incremented time: 1.89346e+08 seconds)

	Rate name       Delta Moles Total Moles   Reactant        Coefficient

	Albite           -6.766e-08   1.000e-01   Albite                    1

-------------------------------Phase assemblage--------------------------------

                                                      Moles in assemblage
Phase               SI  log IAP  log K(T, P)   Initial       Final       Delta

CO2(g)           -3.50    -4.97     -1.47    1.000e+01   1.000e+01  -2.063e-09
O2(g)            -0.70    -3.59     -2.89    1.000e+01   1.000e+01   6.517e-12

-----------------------------Solution composition------------------------------

	Elements           Molality       Moles

	Al                2.707e-07   2.707e-07
	C                 1.126e-04   1.126e-04
	Na                2.707e-07   2.707e-07
	Si                8.120e-07   8.120e-07

----------------------------Description of solution----------------------------

                                       pH  =   7.324      Charge balance
                                       pe  =  13.298      Adjusted to redox equilibrium
      Specific Conductance (µS/cm,  25°C)  = 4
                          Density (g/cm³)  =   0.99705
                               Volume (L)  =   1.00298
                        Activity of water  =   1.000
                 Ionic strength (mol/kgw)  =   5.145e-05
                       Mass of water (kg)  =   1.000e+00
                 Total alkalinity (eq/kg)  =   1.031e-04
                       Total CO2 (mol/kg)  =   1.126e-04
                         Temperature (°C)  =  25.00
                  Electrical balance (eq)  =  -1.021e-04
 Percent error, 100*(Cat-|An|)/(Cat+|An|)  = -99.38
                               Iterations  =   6
                                  Total H  = 1.110125e+02
                                  Total O  = 5.550706e+01

----------------------------Distribution of species----------------------------

                                               Log       Log       Log    mole V
   Species          Molality    Activity  Molality  Activity     Gamma   cm³/mol

   OH-             2.151e-07   2.133e-07    -6.667    -6.671    -0.004     -4.13
   H+              4.785e-08   4.745e-08    -7.320    -7.324    -0.004      0.00
   H2O             5.551e+01   1.000e+00     1.744    -0.000     0.000     18.07
Al            2.707e-07
   Al(OH)4-        2.620e-07   2.598e-07    -6.582    -6.585    -0.004     (0)  
   Al(OH)3         6.541e-09   6.542e-09    -8.184    -8.184     0.000     (0)  
   Al(OH)2+        2.124e-09   2.107e-09    -8.673    -8.676    -0.004     (0)  
   AlOH+2          1.319e-11   1.276e-11   -10.880   -10.894    -0.014    -27.85
   Al+3            6.564e-14   6.094e-14   -13.183   -13.215    -0.032    -42.47
C(-4)         0.000e+00
   CH4             0.000e+00   0.000e+00  -145.553  -145.553     0.000     35.46
C(4)          1.126e-04
   HCO3-           1.017e-04   1.009e-04    -3.993    -3.996    -0.004     24.66
   CO2             1.076e-05   1.076e-05    -4.968    -4.968     0.000     34.43
   CO3-2           1.030e-07   9.967e-08    -6.987    -7.001    -0.014     -5.37
   NaHCO3          1.522e-11   1.522e-11   -10.818   -10.818     0.000      1.80
   (CO2)2          2.125e-12   2.125e-12   -11.673   -11.673     0.000     68.87
   NaCO3-          5.023e-13   4.981e-13   -12.299   -12.303    -0.004     -1.06
H(0)          0.000e+00
   H2              0.000e+00   0.000e+00   -44.394   -44.394     0.000     28.61
Na            2.707e-07
   Na+             2.706e-07   2.684e-07    -6.568    -6.571    -0.004     -1.51
   NaHCO3          1.522e-11   1.522e-11   -10.818   -10.818     0.000      1.80
   NaCO3-          5.023e-13   4.981e-13   -12.299   -12.303    -0.004     -1.06
   NaOH            5.725e-24   5.725e-24   -23.242   -23.242     0.000     (0)  
O(0)          5.112e-04
   O2              2.556e-04   2.556e-04    -3.592    -3.592     0.000     30.40
Si            8.120e-07
   H4SiO4          8.095e-07   8.095e-07    -6.092    -6.092     0.000     52.08
   H3SiO4-         2.536e-09   2.515e-09    -8.596    -8.599    -0.004     27.95
   H2SiO4-2        3.727e-15   3.605e-15   -14.429   -14.443    -0.014     (0)  

------------------------------Saturation indices-------------------------------

  Phase               SI** log IAP   log K(298 K,   1 atm)

  Al(OH)3(a)       -2.04      8.76   10.80  Al(OH)3
  Albite          -13.43    -31.43  -18.00  NaAlSi3O8
  CH4(g)         -142.75   -145.55   -2.80  CH4
  Chalcedony       -2.54     -6.09   -3.55  SiO2
  CO2(g)           -3.50     -4.97   -1.47  CO2	 Pressure   0.0 atm, phi 1.000
  Gibbsite          0.65      8.76    8.11  Al(OH)3
  H2(g)           -41.29    -44.39   -3.10  H2
  H2O(g)           -1.50     -0.00    1.50  H2O
  Kaolinite        -2.11      5.33    7.43  Al2Si2O5(OH)4
  O2(g)            -0.70     -3.59   -2.89  O2	 Pressure   0.2 atm, phi 1.000
  Quartz           -2.11     -6.09   -3.98  SiO2
  SiO2(a)          -3.38     -6.09   -2.71  SiO2

**For a gas, SI = log10(fugacity). Fugacity = pressure * phi / 1 atm.
  For ideal gases, phi = 1.

Reaction step 5.

Using solution 1.	
Using pure phase assemblage 1.	
Using kinetics 1.	

Kinetics 1.	

	Time step: 4.73364e+07 seconds  (Incremented time: 2.36682e+08 seconds)

	Rate name       Delta Moles Total Moles   Reactant        Coefficient

	Albite           -6.766e-08   1.000e-01   Albite                    1

-------------------------------Phase assemblage--------------------------------

                                                      Moles in assemblage
Phase               SI  log IAP  log K(T, P)   Initial       Final       Delta

CO2(g)           -3.50    -4.97     -1.47    1.000e+01   1.000e+01  -2.063e-09
O2(g)            -0.70    -3.59     -2.89    1.000e+01   1.000e+01   6.510e-12

-----------------------------Solution composition------------------------------

	Elements           Molality       Moles

	Al                3.383e-07   3.383e-07
	C                 1.126e-04   1.126e-04
	Na                3.383e-07   3.383e-07
	Si                1.015e-06   1.015e-06

----------------------------Description of solution----------------------------

                                       pH  =   7.324      Charge balance
                                       pe  =  13.298      Adjusted to redox equilibrium
      Specific Conductance (µS/cm,  25°C)  = 4
                          Density (g/cm³)  =   0.99705
                               Volume (L)  =   1.00298
                        Activity of water  =   1.000
                 Ionic strength (mol/kgw)  =   5.152e-05
                       Mass of water (kg)  =   1.000e+00
                 Total alkalinity (eq/kg)  =   1.034e-04
                       Total CO2 (mol/kg)  =   1.126e-04
                         Temperature (°C)  =  25.00
                  Electrical balance (eq)  =  -1.021e-04
 Percent error, 100*(Cat-|An|)/(Cat+|An|)  = -99.24
                               Iterations  =   6
                                  Total H  = 1.110125e+02
                                  Total O  = 5.550706e+01

----------------------------Distribution of species----------------------------

                                               Log       Log       Log    mole V
   Species          Molality    Activity  Molality  Activity     Gamma   cm³/mol

   OH-             2.151e-07   2.133e-07    -6.667    -6.671    -0.004     -4.13
   H+              4.785e-08   4.745e-08    -7.320    -7.324    -0.004      0.00
   H2O             5.551e+01   1.000e+00     1.744    -0.000     0.000     18.07
Al            3.383e-07
   Al(OH)4-        3.275e-07   3.248e-07    -6.485    -6.488    -0.004     (0)  
   Al(OH)3         8.177e-09   8.177e-09    -8.087    -8.087     0.000     (0)  
   Al(OH)2+        2.655e-09   2.633e-09    -8.576    -8.579    -0.004     (0)  
   AlOH+2          1.648e-11   1.594e-11   -10.783   -10.797    -0.014    -27.85
   Al+3            8.204e-14   7.617e-14   -13.086   -13.118    -0.032    -42.47
C(-4)         0.000e+00
   CH4             0.000e+00   0.000e+00  -145.553  -145.553     0.000     35.46
C(4)          1.126e-04
   HCO3-           1.017e-04   1.009e-04    -3.993    -3.996    -0.004     24.66
   CO2             1.076e-05   1.076e-05    -4.968    -4.968     0.000     34.43
   CO3-2           1.030e-07   9.967e-08    -6.987    -7.001    -0.014     -5.37
   NaHCO3          1.903e-11   1.903e-11   -10.721   -10.721     0.000      1.80
   (CO2)2          2.125e-12   2.125e-12   -11.673   -11.673     0.000     68.87
   NaCO3-          6.279e-13   6.227e-13   -12.202   -12.206    -0.004     -1.06
H(0)          0.000e+00
   H2              0.000e+00   0.000e+00   -44.394   -44.394     0.000     28.61
Na            3.383e-07
   Na+             3.383e-07   3.355e-07    -6.471    -6.474    -0.004     -1.51
   NaHCO3          1.903e-11   1.903e-11   -10.721   -10.721     0.000      1.80
   NaCO3-          6.279e-13   6.227e-13   -12.202   -12.206    -0.004     -1.06
   NaOH            7.156e-24   7.156e-24   -23.145   -23.145     0.000     (0)  
O(0)          5.112e-04
   O2              2.556e-04   2.556e-04    -3.592    -3.592     0.000     30.40
Si            1.015e-06
   H4SiO4          1.012e-06   1.012e-06    -5.995    -5.995     0.000     52.08
   H3SiO4-         3.170e-09   3.144e-09    -8.499    -8.503    -0.004     27.95
   H2SiO4-2        4.659e-15   4.507e-15   -14.332   -14.346    -0.014     (0)  

------------------------------Saturation indices-------------------------------

  Phase               SI** log IAP   log K(298 K,   1 atm)

  Al(OH)3(a)       -1.95      8.85   10.80  Al(OH)3
  Albite          -12.95    -30.95  -18.00  NaAlSi3O8
  CH4(g)         -142.75   -145.55   -2.80  CH4
  Chalcedony       -2.44     -5.99   -3.55  SiO2
  CO2(g)           -3.50     -4.97   -1.47  CO2	 Pressure   0.0 atm, phi 1.000
  Gibbsite          0.74      8.85    8.11  Al(OH)3
  H2(g)           -41.29    -44.39   -3.10  H2
  H2O(g)           -1.50     -0.00    1.50  H2O
  Kaolinite        -1.72      5.72    7.43  Al2Si2O5(OH)4
  O2(g)            -0.70     -3.59   -2.89  O2	 Pressure   0.2 atm, phi 1.000
  Quartz           -2.01     -5.99   -3.98  SiO2
  SiO2(a)          -3.28     -5.99   -2.71  SiO2

**For a gas, SI = log10(fugacity). Fugacity = pressure * phi / 1 atm.
  For ideal gases, phi = 1.

Reaction step 6.

Using solution 1.	
Using pure phase assemblage 1.	
Using kinetics 1.	

Kinetics 1.	

	Time step: 4.73364e+07 seconds  (Incremented time: 2.84018e+08 seconds)

	Rate name       Delta Moles Total Moles   Reactant        Coefficient

	Albite           -6.766e-08   1.000e-01   Albite                    1

-------------------------------Phase assemblage--------------------------------

                                                      Moles in assemblage
Phase               SI  log IAP  log K(T, P)   Initial       Final       Delta

CO2(g)           -3.50    -4.97     -1.47    1.000e+01   1.000e+01  -2.062e-09
O2(g)            -0.70    -3.59     -2.89    1.000e+01   1.000e+01   6.509e-12

-----------------------------Solution composition------------------------------

	Elements           Molality       Moles

	Al                4.060e-07   4.060e-07
	C                 1.126e-04   1.126e-04
	Na                4.060e-07   4.060e-07
	Si                1.218e-06   1.218e-06

----------------------------Description of solution----------------------------

                                       pH  =   7.324      Charge balance
                                       pe  =  13.298      Adjusted to redox equilibrium
      Specific Conductance (µS/cm,  25°C)  = 4
                          Density (g/cm³)  =   0.99705
                               Volume (L)  =   1.00298
                        Activity of water  =   1.000
                 Ionic strength (mol/kgw)  =   5.159e-05
                       Mass of water (kg)  =   1.000e+00
                 Total alkalinity (eq/kg)  =   1.037e-04
                       Total CO2 (mol/kg)  =   1.126e-04
                         Temperature (°C)  =  25.00
                  Electrical balance (eq)  =  -1.021e-04
 Percent error, 100*(Cat-|An|)/(Cat+|An|)  = -99.11
                               Iterations  =   8
                                  Total H  = 1.110125e+02
                                  Total O  = 5.550706e+01

----------------------------Distribution of species----------------------------

                                               Log       Log       Log    mole V
   Species          Molality    Activity  Molality  Activity     Gamma   cm³/mol

   OH-             2.151e-07   2.133e-07    -6.667    -6.671    -0.004     -4.13
   H+              4.785e-08   4.745e-08    -7.320    -7.324    -0.004      0.00
   H2O             5.551e+01   1.000e+00     1.744    -0.000     0.000     18.07
Al            4.060e-07
   Al(OH)4-        3.930e-07   3.897e-07    -6.406    -6.409    -0.004     (0)  
   Al(OH)3         9.812e-09   9.812e-09    -8.008    -8.008     0.000     (0)  
   Al(OH)2+        3.186e-09   3.160e-09    -8.497    -8.500    -0.004     (0)  
   AlOH+2          1.978e-11   1.913e-11   -10.704   -10.718    -0.014    -27.85
   Al+3            9.845e-14   9.140e-14   -13.007   -13.039    -0.032    -42.47
C(-4)         0.000e+00
   CH4             0.000e+00   0.000e+00  -145.553  -145.553     0.000     35.46
C(4)          1.126e-04
   HCO3-           1.017e-04   1.009e-04    -3.993    -3.996    -0.004     24.66
   CO2             1.076e-05   1.076e-05    -4.968    -4.968     0.000     34.43
   CO3-2           1.031e-07   9.968e-08    -6.987    -7.001    -0.014     -5.37
   NaHCO3          2.283e-11   2.283e-11   -10.641   -10.641     0.000      1.80
   (CO2)2          2.125e-12   2.125e-12   -11.673   -11.673     0.000     68.87
   NaCO3-          7.535e-13   7.472e-13   -12.123   -12.127    -0.004     -1.06
H(0)          0.000e+00
   H2              0.000e+00   0.000e+00   -44.394   -44.394     0.000     28.61
Na            4.060e-07
   Na+             4.060e-07   4.026e-07    -6.392    -6.395    -0.004     -1.51
   NaHCO3          2.283e-11   2.283e-11   -10.641   -10.641     0.000      1.80
   NaCO3-          7.535e-13   7.472e-13   -12.123   -12.127    -0.004     -1.06
   NaOH            8.587e-24   8.587e-24   -23.066   -23.066     0.000     (0)  
O(0)          5.112e-04
   O2              2.556e-04   2.556e-04    -3.592    -3.592     0.000     30.40
Si            1.218e-06
   H4SiO4          1.214e-06   1.214e-06    -5.916    -5.916     0.000     52.08
   H3SiO4-         3.804e-09   3.773e-09    -8.420    -8.423    -0.004     27.95
   H2SiO4-2        5.592e-15   5.408e-15   -14.252   -14.267    -0.014     (0)  

------------------------------Saturation indices-------------------------------

  Phase               SI** log IAP   log K(298 K,   1 atm)

  Al(OH)3(a)       -1.87      8.93   10.80  Al(OH)3
  Albite          -12.55    -30.55  -18.00  NaAlSi3O8
  CH4(g)         -142.75   -145.55   -2.80  CH4
  Chalcedony       -2.36     -5.92   -3.55  SiO2
  CO2(g)           -3.50     -4.97   -1.47  CO2	 Pressure   0.0 atm, phi 1.000
  Gibbsite          0.82      8.93    8.11  Al(OH)3
  H2(g)           -41.29    -44.39   -3.10  H2
  H2O(g)           -1.50     -0.00    1.50  H2O
  Kaolinite        -1.40      6.03    7.43  Al2Si2O5(OH)4
  O2(g)            -0.70     -3.59   -2.89  O2	 Pressure   0.2 atm, phi 1.000
  Quartz           -1.94     -5.92   -3.98  SiO2
  SiO2(a)          -3.20     -5.92   -2.71  SiO2

**For a gas, SI = log10(fugacity). Fugacity = pressure * phi / 1 atm.
  For ideal gases, phi = 1.

Reaction step 7.

Using solution 1.	
Using pure phase assemblage 1.	
Using kinetics 1.	

Kinetics 1.	

	Time step: 4.73364e+07 seconds  (Incremented time: 3.31355e+08 seconds)

	Rate name       Delta Moles Total Moles   Reactant        Coefficient

	Albite           -6.766e-08   1.000e-01   Albite                    1

-------------------------------Phase assemblage--------------------------------

                                                      Moles in assemblage
Phase               SI  log IAP  log K(T, P)   Initial       Final       Delta

CO2(g)           -3.50    -4.97     -1.47    1.000e+01   1.000e+01  -2.062e-09
O2(g)            -0.70    -3.59     -2.89    1.000e+01   1.000e+01   6.500e-12

-----------------------------Solution composition------------------------------

	Elements           Molality       Moles

	Al                4.737e-07   4.737e-07
	C                 1.126e-04   1.126e-04
	Na                4.737e-07   4.737e-07
	Si                1.421e-06   1.421e-06

----------------------------Description of solution----------------------------

                                       pH  =   7.324      Charge balance
                                       pe  =  13.298      Adjusted to redox equilibrium
      Specific Conductance (µS/cm,  25°C)  = 4
                          Density (g/cm³)  =   0.99705
                               Volume (L)  =   1.00298
                        Activity of water  =   1.000
                 Ionic strength (mol/kgw)  =   5.166e-05
                       Mass of water (kg)  =   1.000e+00
                 Total alkalinity (eq/kg)  =   1.040e-04
                       Total CO2 (mol/kg)  =   1.126e-04
                         Temperature (°C)  =  25.00
                  Electrical balance (eq)  =  -1.021e-04
 Percent error, 100*(Cat-|An|)/(Cat+|An|)  = -98.98
                               Iterations  =   5
                                  Total H  = 1.110125e+02
                                  Total O  = 5.550706e+01

----------------------------Distribution of species----------------------------

                                               Log       Log       Log    mole V
   Species          Molality    Activity  Molality  Activity     Gamma   cm³/mol

   OH-             2.151e-07   2.133e-07    -6.667    -6.671    -0.004     -4.13
   H+              4.785e-08   4.745e-08    -7.320    -7.324    -0.004      0.00
   H2O             5.551e+01   1.000e+00     1.744    -0.000     0.000     18.07
Al            4.737e-07
   Al(OH)4-        4.585e-07   4.547e-07    -6.339    -6.342    -0.004     (0)  
   Al(OH)3         1.145e-08   1.145e-08    -7.941    -7.941     0.000     (0)  
   Al(OH)2+        3.717e-09   3.687e-09    -8.430    -8.433    -0.004     (0)  
   AlOH+2          2.308e-11   2.232e-11   -10.637   -10.651    -0.014    -27.85
   Al+3            1.149e-13   1.066e-13   -12.940   -12.972    -0.032    -42.47
C(-4)         0.000e+00
   CH4             0.000e+00   0.000e+00  -145.553  -145.553     0.000     35.46
C(4)          1.126e-04
   HCO3-           1.017e-04   1.009e-04    -3.993    -3.996    -0.004     24.66
   CO2             1.076e-05   1.076e-05    -4.968    -4.968     0.000     34.43
   CO3-2           1.031e-07   9.968e-08    -6.987    -7.001    -0.014     -5.37
   NaHCO3          2.664e-11   2.664e-11   -10.574   -10.574     0.000      1.80
   (CO2)2          2.125e-12   2.125e-12   -11.673   -11.673     0.000     68.87
   NaCO3-          8.791e-13   8.718e-13   -12.056   -12.060    -0.004     -1.06
H(0)          0.000e+00
   H2              0.000e+00   0.000e+00   -44.394   -44.394     0.000     28.61
Na            4.737e-07
   Na+             4.736e-07   4.697e-07    -6.325    -6.328    -0.004     -1.51
   NaHCO3          2.664e-11   2.664e-11   -10.574   -10.574     0.000      1.80
   NaCO3-          8.791e-13   8.718e-13   -12.056   -12.060    -0.004     -1.06
   NaOH            1.002e-23   1.002e-23   -22.999   -22.999     0.000     (0)  
O(0)          5.112e-04
   O2              2.556e-04   2.556e-04    -3.592    -3.592     0.000     30.40
Si            1.421e-06
   H4SiO4          1.417e-06   1.417e-06    -5.849    -5.849     0.000     52.08
   H3SiO4-         4.439e-09   4.402e-09    -8.353    -8.356    -0.004     27.95
   H2SiO4-2        6.524e-15   6.310e-15   -14.186   -14.200    -0.014     (0)  

------------------------------Saturation indices-------------------------------

  Phase               SI** log IAP   log K(298 K,   1 atm)

  Al(OH)3(a)       -1.80      9.00   10.80  Al(OH)3
  Albite          -12.21    -30.22  -18.00  NaAlSi3O8
  CH4(g)         -142.75   -145.55   -2.80  CH4
  Chalcedony       -2.30     -5.85   -3.55  SiO2
  CO2(g)           -3.50     -4.97   -1.47  CO2	 Pressure   0.0 atm, phi 1.000
  Gibbsite          0.89      9.00    8.11  Al(OH)3
  H2(g)           -41.29    -44.39   -3.10  H2
  H2O(g)           -1.50     -0.00    1.50  H2O
  Kaolinite        -1.13      6.30    7.43  Al2Si2O5(OH)4
  O2(g)            -0.70     -3.59   -2.89  O2	 Pressure   0.2 atm, phi 1.000
  Quartz           -1.87     -5.85   -3.98  SiO2
  SiO2(a)          -3.14     -5.85   -2.71  SiO2

**For a gas, SI = log10(fugacity). Fugacity = pressure * phi / 1 atm.
  For ideal gases, phi = 1.

Reaction step 8.

Using solution 1.	
Using pure phase assemblage 1.	
Using kinetics 1.	

Kinetics 1.	

	Time step: 4.73364e+07 seconds  (Incremented time: 3.78691e+08 seconds)

	Rate name       Delta Moles Total Moles   Reactant        Coefficient

	Albite           -6.766e-08   1.000e-01   Albite                    1

-------------------------------Phase assemblage--------------------------------

                                                      Moles in assemblage
Phase               SI  log IAP  log K(T, P)   Initial       Final       Delta

CO2(g)           -3.50    -4.97     -1.47    1.000e+01   1.000e+01  -2.062e-09
O2(g)            -0.70    -3.59     -2.89    1.000e+01   1.000e+01   6.507e-12

-----------------------------Solution composition------------------------------

	Elements           Molality       Moles

	Al                5.413e-07   5.413e-07
	C                 1.126e-04   1.126e-04
	Na                5.413e-07   5.413e-07
	Si                1.624e-06   1.624e-06

----------------------------Description of solution----------------------------

                                       pH  =   7.324      Charge balance
                                       pe  =  13.298      Adjusted to redox equilibrium
      Specific Conductance (µS/cm,  25°C)  = 4
                          Density (g/cm³)  =   0.99705
                               Volume (L)  =   1.00298
                        Activity of water  =   1.000
                 Ionic strength (mol/kgw)  =   5.173e-05
                       Mass of water (kg)  =   1.000e+00
                 Total alkalinity (eq/kg)  =   1.042e-04
                       Total CO2 (mol/kg)  =   1.126e-04
                         Temperature (°C)  =  25.00
                  Electrical balance (eq)  =  -1.021e-04
 Percent error, 100*(Cat-|An|)/(Cat+|An|)  = -98.85
                               Iterations  =   5
                                  Total H  = 1.110125e+02
                                  Total O  = 5.550706e+01

----------------------------Distribution of species----------------------------

                                               Log       Log       Log    mole V
   Species          Molality    Activity  Molality  Activity     Gamma   cm³/mol

   OH-             2.151e-07   2.133e-07    -6.667    -6.671    -0.004     -4.13
   H+              4.785e-08   4.745e-08    -7.320    -7.324    -0.004      0.00
   H2O             5.551e+01   1.000e+00     1.744    -0.000     0.000     18.07
Al            5.413e-07
   Al(OH)4-        5.240e-07   5.196e-07    -6.281    -6.284    -0.004     (0)  
   Al(OH)3         1.308e-08   1.308e-08    -7.883    -7.883     0.000     (0)  
   Al(OH)2+        4.248e-09   4.213e-09    -8.372    -8.375    -0.004     (0)  
   AlOH+2          2.637e-11   2.551e-11   -10.579   -10.593    -0.014    -27.85
   Al+3            1.313e-13   1.218e-13   -12.882   -12.914    -0.032    -42.47
C(-4)         0.000e+00
   CH4             0.000e+00   0.000e+00  -145.553  -145.553     0.000     35.46
C(4)          1.126e-04
   HCO3-           1.017e-04   1.009e-04    -3.993    -3.996    -0.004     24.66
   CO2             1.076e-05   1.076e-05    -4.968    -4.968     0.000     34.43
   CO3-2           1.031e-07   9.968e-08    -6.987    -7.001    -0.014     -5.37
   NaHCO3          3.044e-11   3.044e-11   -10.516   -10.516     0.000      1.80
   (CO2)2          2.125e-12   2.125e-12   -11.673   -11.673     0.000     68.87
   NaCO3-          1.005e-12   9.964e-13   -11.998   -12.002    -0.004     -1.06
H(0)          0.000e+00
   H2              0.000e+00   0.000e+00   -44.394   -44.394     0.000     28.61
Na            5.413e-07
   Na+             5.413e-07   5.368e-07    -6.267    -6.270    -0.004     -1.51
   NaHCO3          3.044e-11   3.044e-11   -10.516   -10.516     0.000      1.80
   NaCO3-          1.005e-12   9.964e-13   -11.998   -12.002    -0.004     -1.06
   NaOH            1.145e-23   1.145e-23   -22.941   -22.941     0.000     (0)  
O(0)          5.112e-04
   O2              2.556e-04   2.556e-04    -3.592    -3.592     0.000     30.40
Si            1.624e-06
   H4SiO4          1.619e-06   1.619e-06    -5.791    -5.791     0.000     52.08
   H3SiO4-         5.073e-09   5.031e-09    -8.295    -8.298    -0.004     27.95
   H2SiO4-2        7.456e-15   7.211e-15   -14.127   -14.142    -0.014     (0)  

------------------------------Saturation indices-------------------------------

  Phase               SI** log IAP   log K(298 K,   1 atm)

  Al(OH)3(a)       -1.74      9.06   10.80  Al(OH)3
  Albite          -11.92    -29.93  -18.00  NaAlSi3O8
  CH4(g)         -142.75   -145.55   -2.80  CH4
  Chalcedony       -2.24     -5.79   -3.55  SiO2
  CO2(g)           -3.50     -4.97   -1.47  CO2	 Pressure   0.0 atm, phi 1.000
  Gibbsite          0.95      9.06    8.11  Al(OH)3
  H2(g)           -41.29    -44.39   -3.10  H2
  H2O(g)           -1.50     -0.00    1.50  H2O
  Kaolinite        -0.90      6.53    7.43  Al2Si2O5(OH)4
  O2(g)            -0.70     -3.59   -2.89  O2	 Pressure   0.2 atm, phi 1.000
  Quartz           -1.81     -5.79   -3.98  SiO2
  SiO2(a)          -3.08     -5.79   -2.71  SiO2

**For a gas, SI = log10(fugacity). Fugacity = pressure * phi / 1 atm.
  For ideal gases, phi = 1.

Reaction step 9.

Using solution 1.	
Using pure phase assemblage 1.	
Using kinetics 1.	

Kinetics 1.	

	Time step: 4.73364e+07 seconds  (Incremented time: 4.26028e+08 seconds)

	Rate name       Delta Moles Total Moles   Reactant        Coefficient

	Albite           -6.766e-08   1.000e-01   Albite                    1

-------------------------------Phase assemblage--------------------------------

                                                      Moles in assemblage
Phase               SI  log IAP  log K(T, P)   Initial       Final       Delta

CO2(g)           -3.50    -4.97     -1.47    1.000e+01   1.000e+01  -2.062e-09
O2(g)            -0.70    -3.59     -2.89    1.000e+01   1.000e+01   6.501e-12

-----------------------------Solution composition------------------------------

	Elements           Molality       Moles

	Al                6.090e-07   6.090e-07
	C                 1.126e-04   1.126e-04
	Na                6.090e-07   6.090e-07
	Si                1.827e-06   1.827e-06

----------------------------Description of solution----------------------------

                                       pH  =   7.324      Charge balance
                                       pe  =  13.298      Adjusted to redox equilibrium
      Specific Conductance (µS/cm,  25°C)  = 4
                          Density (g/cm³)  =   0.99705
                               Volume (L)  =   1.00298
                        Activity of water  =   1.000
                 Ionic strength (mol/kgw)  =   5.180e-05
                       Mass of water (kg)  =   1.000e+00
                 Total alkalinity (eq/kg)  =   1.045e-04
                       Total CO2 (mol/kg)  =   1.126e-04
                         Temperature (°C)  =  25.00
                  Electrical balance (eq)  =  -1.021e-04
 Percent error, 100*(Cat-|An|)/(Cat+|An|)  = -98.72
                               Iterations  =   5
                                  Total H  = 1.110125e+02
                                  Total O  = 5.550706e+01

----------------------------Distribution of species----------------------------

                                               Log       Log       Log    mole V
   Species          Molality    Activity  Molality  Activity     Gamma   cm³/mol

   OH-             2.151e-07   2.133e-07    -6.667    -6.671    -0.004     -4.13
   H+              4.784e-08   4.745e-08    -7.320    -7.324    -0.004      0.00
   H2O             5.551e+01   1.000e+00     1.744    -0.000     0.000     18.07
Al            6.090e-07
   Al(OH)4-        5.895e-07   5.845e-07    -6.230    -6.233    -0.004     (0)  
   Al(OH)3         1.472e-08   1.472e-08    -7.832    -7.832     0.000     (0)  
   Al(OH)2+        4.779e-09   4.739e-09    -8.321    -8.324    -0.004     (0)  
   AlOH+2          2.967e-11   2.869e-11   -10.528   -10.542    -0.014    -27.85
   Al+3            1.477e-13   1.371e-13   -12.831   -12.863    -0.032    -42.47
C(-4)         0.000e+00
   CH4             0.000e+00   0.000e+00  -145.553  -145.553     0.000     35.46
C(4)          1.126e-04
   HCO3-           1.017e-04   1.009e-04    -3.993    -3.996    -0.004     24.66
   CO2             1.076e-05   1.076e-05    -4.968    -4.968     0.000     34.43
   CO3-2           1.031e-07   9.968e-08    -6.987    -7.001    -0.014     -5.37
   NaHCO3          3.425e-11   3.425e-11   -10.465   -10.465     0.000      1.80
   (CO2)2          2.125e-12   2.125e-12   -11.673   -11.673     0.000     68.87
   NaCO3-          1.130e-12   1.121e-12   -11.947   -11.950    -0.004     -1.06
H(0)          0.000e+00
   H2              0.000e+00   0.000e+00   -44.394   -44.394     0.000     28.61
Na            6.090e-07
   Na+             6.089e-07   6.039e-07    -6.215    -6.219    -0.004     -1.51
   NaHCO3          3.425e-11   3.425e-11   -10.465   -10.465     0.000      1.80
   NaCO3-          1.130e-12   1.121e-12   -11.947   -11.950    -0.004     -1.06
   NaOH            1.288e-23   1.288e-23   -22.890   -22.890     0.000     (0)  
O(0)          5.112e-04
   O2              2.556e-04   2.556e-04    -3.592    -3.592     0.000     30.40
Si            1.827e-06
   H4SiO4          1.821e-06   1.821e-06    -5.740    -5.740     0.000     52.08
   H3SiO4-         5.707e-09   5.659e-09    -8.244    -8.247    -0.004     27.95
   H2SiO4-2        8.389e-15   8.113e-15   -14.076   -14.091    -0.014     (0)  

------------------------------Saturation indices-------------------------------

  Phase               SI** log IAP   log K(298 K,   1 atm)

  Al(OH)3(a)       -1.69      9.11   10.80  Al(OH)3
  Albite          -11.67    -29.67  -18.00  NaAlSi3O8
  CH4(g)         -142.75   -145.55   -2.80  CH4
  Chalcedony       -2.19     -5.74   -3.55  SiO2
  CO2(g)           -3.50     -4.97   -1.47  CO2	 Pressure   0.0 atm, phi 1.000
  Gibbsite          1.00      9.11    8.11  Al(OH)3
  H2(g)           -41.29    -44.39   -3.10  H2
  H2O(g)           -1.50     -0.00    1.50  H2O
  Kaolinite        -0.70      6.74    7.43  Al2Si2O5(OH)4
  O2(g)            -0.70     -3.59   -2.89  O2	 Pressure   0.2 atm, phi 1.000
  Quartz           -1.76     -5.74   -3.98  SiO2
  SiO2(a)          -3.03     -5.74   -2.71  SiO2

**For a gas, SI = log10(fugacity). Fugacity = pressure * phi / 1 atm.
  For ideal gases, phi = 1.

Reaction step 10.

Using solution 1.	
Using pure phase assemblage 1.	
Using kinetics 1.	

Kinetics 1.	

	Time step: 4.73364e+07 seconds  (Incremented time: 4.73364e+08 seconds)

	Rate name       Delta Moles Total Moles   Reactant        Coefficient

	Albite           -6.766e-08   1.000e-01   Albite                    1

-------------------------------Phase assemblage--------------------------------

                                                      Moles in assemblage
Phase               SI  log IAP  log K(T, P)   Initial       Final       Delta

CO2(g)           -3.50    -4.97     -1.47    1.000e+01   1.000e+01  -2.062e-09
O2(g)            -0.70    -3.59     -2.89    1.000e+01   1.000e+01   6.500e-12

-----------------------------Solution composition------------------------------

	Elements           Molality       Moles

	Al                6.766e-07   6.766e-07
	C                 1.126e-04   1.126e-04
	Na                6.766e-07   6.766e-07
	Si                2.030e-06   2.030e-06

----------------------------Description of solution----------------------------

                                       pH  =   7.324      Charge balance
                                       pe  =  13.298      Adjusted to redox equilibrium
      Specific Conductance (µS/cm,  25°C)  = 4
                          Density (g/cm³)  =   0.99705
                               Volume (L)  =   1.00298
                        Activity of water  =   1.000
                 Ionic strength (mol/kgw)  =   5.186e-05
                       Mass of water (kg)  =   1.000e+00
                 Total alkalinity (eq/kg)  =   1.048e-04
                       Total CO2 (mol/kg)  =   1.126e-04
                         Temperature (°C)  =  25.00
                  Electrical balance (eq)  =  -1.021e-04
 Percent error, 100*(Cat-|An|)/(Cat+|An|)  = -98.59
                               Iterations  =   5
                                  Total H  = 1.110125e+02
                                  Total O  = 5.550706e+01

----------------------------Distribution of species----------------------------

                                               Log       Log       Log    mole V
   Species          Molality    Activity  Molality  Activity     Gamma   cm³/mol

   OH-             2.151e-07   2.133e-07    -6.667    -6.671    -0.004     -4.13
   H+              4.784e-08   4.745e-08    -7.320    -7.324    -0.004      0.00
   H2O             5.551e+01   1.000e+00     1.744    -0.000     0.000     18.07
Al            6.766e-07
   Al(OH)4-        6.549e-07   6.495e-07    -6.184    -6.187    -0.004     (0)  
   Al(OH)3         1.635e-08   1.635e-08    -7.786    -7.786     0.000     (0)  
   Al(OH)2+        5.310e-09   5.266e-09    -8.275    -8.279    -0.004     (0)  
   AlOH+2          3.296e-11   3.188e-11   -10.482   -10.496    -0.015    -27.85
   Al+3            1.641e-13   1.523e-13   -12.785   -12.817    -0.032    -42.47
C(-4)         0.000e+00
   CH4             0.000e+00   0.000e+00  -145.553  -145.553     0.000     35.46
C(4)          1.126e-04
   HCO3-           1.017e-04   1.009e-04    -3.993    -3.996    -0.004     24.66
   CO2             1.076e-05   1.076e-05    -4.968    -4.968     0.000     34.43
   CO3-2           1.031e-07   9.969e-08    -6.987    -7.001    -0.015     -5.37
   NaHCO3          3.806e-11   3.806e-11   -10.420   -10.420     0.000      1.80
   (CO2)2          2.125e-12   2.125e-12   -11.673   -11.673     0.000     68.87
   NaCO3-          1.256e-12   1.245e-12   -11.901   -11.905    -0.004     -1.06
H(0)          0.000e+00
   H2              0.000e+00   0.000e+00   -44.394   -44.394     0.000     28.61
Na            6.766e-07
   Na+             6.766e-07   6.710e-07    -6.170    -6.173    -0.004     -1.51
   NaHCO3          3.806e-11   3.806e-11   -10.420   -10.420     0.000      1.80
   NaCO3-          1.256e-12   1.245e-12   -11.901   -11.905    -0.004     -1.06
   NaOH            1.431e-23   1.431e-23   -22.844   -22.844     0.000     (0)  
O(0)          5.112e-04
   O2              2.556e-04   2.556e-04    -3.592    -3.592     0.000     30.40
Si            2.030e-06
   H4SiO4          2.024e-06   2.024e-06    -5.694    -5.694     0.000     52.08
   H3SiO4-         6.341e-09   6.288e-09    -8.198    -8.201    -0.004     27.95
   H2SiO4-2        9.321e-15   9.015e-15   -14.031   -14.045    -0.015     (0)  

------------------------------Saturation indices-------------------------------

  Phase               SI** log IAP   log K(298 K,   1 atm)

  Al(OH)3(a)       -1.65      9.15   10.80  Al(OH)3
  Albite          -11.44    -29.44  -18.00  NaAlSi3O8
  CH4(g)         -142.75   -145.55   -2.80  CH4
  Chalcedony       -2.14     -5.69   -3.55  SiO2
  CO2(g)           -3.50     -4.97   -1.47  CO2	 Pressure   0.0 atm, phi 1.000
  Gibbsite          1.04      9.15    8.11  Al(OH)3
  H2(g)           -41.29    -44.39   -3.10  H2
  H2O(g)           -1.50     -0.00    1.50  H2O
  Kaolinite        -0.51      6.92    7.43  Al2Si2O5(OH)4
  O2(g)            -0.70     -3.59   -2.89  O2	 Pressure   0.2 atm, phi 1.000
  Quartz           -1.71     -5.69   -3.98  SiO2
  SiO2(a)          -2.98     -5.69   -2.71  SiO2

**For a gas, SI = log10(fugacity). Fugacity = pressure * phi / 1 atm.
  For ideal gases, phi = 1.

Reaction step 11.

Using solution 1.	
Using pure phase assemblage 1.	
Using kinetics 1.	

Kinetics 1.	

	Time step: 4.73364e+07 seconds  (Incremented time: 5.207e+08 seconds)

	Rate name       Delta Moles Total Moles   Reactant        Coefficient

	Albite           -6.766e-08   1.000e-01   Albite                    1

-------------------------------Phase assemblage--------------------------------

                                                      Moles in assemblage
Phase               SI  log IAP  log K(T, P)   Initial       Final       Delta

CO2(g)           -3.50    -4.97     -1.47    1.000e+01   1.000e+01  -2.062e-09
O2(g)            -0.70    -3.59     -2.89    1.000e+01   1.000e+01   6.498e-12

-----------------------------Solution composition------------------------------

	Elements           Molality       Moles

	Al                7.443e-07   7.443e-07
	C                 1.126e-04   1.126e-04
	Na                7.443e-07   7.443e-07
	Si                2.233e-06   2.233e-06

----------------------------Description of solution----------------------------

                                       pH  =   7.324      Charge balance
                                       pe  =  13.298      Adjusted to redox equilibrium
      Specific Conductance (µS/cm,  25°C)  = 4
                          Density (g/cm³)  =   0.99705
                               Volume (L)  =   1.00298
                        Activity of water  =   1.000
                 Ionic strength (mol/kgw)  =   5.193e-05
                       Mass of water (kg)  =   1.000e+00
                 Total alkalinity (eq/kg)  =   1.050e-04
                       Total CO2 (mol/kg)  =   1.126e-04
                         Temperature (°C)  =  25.00
                  Electrical balance (eq)  =  -1.021e-04
 Percent error, 100*(Cat-|An|)/(Cat+|An|)  = -98.46
                               Iterations  =   5
                                  Total H  = 1.110125e+02
                                  Total O  = 5.550706e+01

----------------------------Distribution of species----------------------------

                                               Log       Log       Log    mole V
   Species          Molality    Activity  Molality  Activity     Gamma   cm³/mol

   OH-             2.151e-07   2.133e-07    -6.667    -6.671    -0.004     -4.13
   H+              4.784e-08   4.745e-08    -7.320    -7.324    -0.004      0.00
   H2O             5.551e+01   1.000e+00     1.744    -0.000     0.000     18.07
Al            7.443e-07
   Al(OH)4-        7.204e-07   7.144e-07    -6.142    -6.146    -0.004     (0)  
   Al(OH)3         1.799e-08   1.799e-08    -7.745    -7.745     0.000     (0)  
   Al(OH)2+        5.841e-09   5.792e-09    -8.234    -8.237    -0.004     (0)  
   AlOH+2          3.626e-11   3.507e-11   -10.441   -10.455    -0.015    -27.85
   Al+3            1.805e-13   1.675e-13   -12.744   -12.776    -0.032    -42.47
C(-4)         0.000e+00
   CH4             0.000e+00   0.000e+00  -145.553  -145.553     0.000     35.46
C(4)          1.126e-04
   HCO3-           1.017e-04   1.009e-04    -3.993    -3.996    -0.004     24.66
   CO2             1.076e-05   1.076e-05    -4.968    -4.968     0.000     34.43
   CO3-2           1.031e-07   9.969e-08    -6.987    -7.001    -0.015     -5.37
   NaHCO3          4.186e-11   4.186e-11   -10.378   -10.378     0.000      1.80
   (CO2)2          2.125e-12   2.125e-12   -11.673   -11.673     0.000     68.87
   NaCO3-          1.382e-12   1.370e-12   -11.860   -11.863    -0.004     -1.06
H(0)          0.000e+00
   H2              0.000e+00   0.000e+00   -44.394   -44.394     0.000     28.61
Na            7.443e-07
   Na+             7.443e-07   7.381e-07    -6.128    -6.132    -0.004     -1.51
   NaHCO3          4.186e-11   4.186e-11   -10.378   -10.378     0.000      1.80
   NaCO3-          1.382e-12   1.370e-12   -11.860   -11.863    -0.004     -1.06
   NaOH            1.574e-23   1.574e-23   -22.803   -22.803     0.000     (0)  
O(0)          5.112e-04
   O2              2.556e-04   2.556e-04    -3.592    -3.592     0.000     30.40
Si            2.233e-06
   H4SiO4          2.226e-06   2.226e-06    -5.652    -5.652     0.000     52.08
   H3SiO4-         6.975e-09   6.917e-09    -8.156    -8.160    -0.004     27.95
   H2SiO4-2        1.025e-14   9.917e-15   -13.989   -14.004    -0.015     (0)  

------------------------------Saturation indices-------------------------------

  Phase               SI** log IAP   log K(298 K,   1 atm)

  Al(OH)3(a)       -1.60      9.20   10.80  Al(OH)3
  Albite          -11.23    -29.24  -18.00  NaAlSi3O8
  CH4(g)         -142.75   -145.55   -2.80  CH4
  Chalcedony       -2.10     -5.65   -3.55  SiO2
  CO2(g)           -3.50     -4.97   -1.47  CO2	 Pressure   0.0 atm, phi 1.000
  Gibbsite          1.09      9.20    8.11  Al(OH)3
  H2(g)           -41.29    -44.39   -3.10  H2
  H2O(g)           -1.50     -0.00    1.50  H2O
  Kaolinite        -0.35      7.09    7.43  Al2Si2O5(OH)4
  O2(g)            -0.70     -3.59   -2.89  O2	 Pressure   0.2 atm, phi 1.000
  Quartz           -1.67     -5.65   -3.98  SiO2
  SiO2(a)          -2.94     -5.65   -2.71  SiO2

**For a gas, SI = log10(fugacity). Fugacity = pressure * phi / 1 atm.
  For ideal gases, phi = 1.

Reaction step 12.

Using solution 1.	
Using pure phase assemblage 1.	
Using kinetics 1.	

Kinetics 1.	

	Time step: 4.73364e+07 seconds  (Incremented time: 5.68037e+08 seconds)

	Rate name       Delta Moles Total Moles   Reactant        Coefficient

	Albite           -6.766e-08   1.000e-01   Albite                    1

-------------------------------Phase assemblage--------------------------------

                                                      Moles in assemblage
Phase               SI  log IAP  log K(T, P)   Initial       Final       Delta

CO2(g)           -3.50    -4.97     -1.47    1.000e+01   1.000e+01  -2.061e-09
O2(g)            -0.70    -3.59     -2.89    1.000e+01   1.000e+01   6.503e-12

-----------------------------Solution composition------------------------------

	Elements           Molality       Moles

	Al                8.120e-07   8.120e-07
	C                 1.126e-04   1.126e-04
	Na                8.120e-07   8.120e-07
	Si                2.436e-06   2.436e-06

----------------------------Description of solution----------------------------

                                       pH  =   7.324      Charge balance
                                       pe  =  13.298      Adjusted to redox equilibrium
      Specific Conductance (µS/cm,  25°C)  = 4
                          Density (g/cm³)  =   0.99705
                               Volume (L)  =   1.00298
                        Activity of water  =   1.000
                 Ionic strength (mol/kgw)  =   5.200e-05
                       Mass of water (kg)  =   1.000e+00
                 Total alkalinity (eq/kg)  =   1.053e-04
                       Total CO2 (mol/kg)  =   1.126e-04
                         Temperature (°C)  =  25.00
                  Electrical balance (eq)  =  -1.021e-04
 Percent error, 100*(Cat-|An|)/(Cat+|An|)  = -98.33
                               Iterations  =   6
                                  Total H  = 1.110125e+02
                                  Total O  = 5.550706e+01

----------------------------Distribution of species----------------------------

                                               Log       Log       Log    mole V
   Species          Molality    Activity  Molality  Activity     Gamma   cm³/mol

   OH-             2.151e-07   2.133e-07    -6.667    -6.671    -0.004     -4.13
   H+              4.784e-08   4.745e-08    -7.320    -7.324    -0.004      0.00
   H2O             5.551e+01   1.000e+00     1.744    -0.000     0.000     18.07
Al            8.120e-07
   Al(OH)4-        7.859e-07   7.794e-07    -6.105    -6.108    -0.004     (0)  
   Al(OH)3         1.962e-08   1.962e-08    -7.707    -7.707     0.000     (0)  
   Al(OH)2+        6.372e-09   6.319e-09    -8.196    -8.199    -0.004     (0)  
   AlOH+2          3.955e-11   3.825e-11   -10.403   -10.417    -0.015    -27.85
   Al+3            1.969e-13   1.827e-13   -12.706   -12.738    -0.032    -42.47
C(-4)         0.000e+00
   CH4             0.000e+00   0.000e+00  -145.553  -145.553     0.000     35.46
C(4)          1.126e-04
   HCO3-           1.017e-04   1.009e-04    -3.993    -3.996    -0.004     24.66
   CO2             1.076e-05   1.076e-05    -4.968    -4.968     0.000     34.43
   CO3-2           1.031e-07   9.969e-08    -6.987    -7.001    -0.015     -5.37
   NaHCO3          4.567e-11   4.567e-11   -10.340   -10.340     0.000      1.80
   (CO2)2          2.125e-12   2.125e-12   -11.673   -11.673     0.000     68.87
   NaCO3-          1.507e-12   1.495e-12   -11.822   -11.825    -0.004     -1.06
H(0)          0.000e+00
   H2              0.000e+00   0.000e+00   -44.394   -44.394     0.000     28.61
Na            8.120e-07
   Na+             8.119e-07   8.051e-07    -6.090    -6.094    -0.004     -1.51
   NaHCO3          4.567e-11   4.567e-11   -10.340   -10.340     0.000      1.80
   NaCO3-          1.507e-12   1.495e-12   -11.822   -11.825    -0.004     -1.06
   NaOH            1.717e-23   1.717e-23   -22.765   -22.765     0.000     (0)  
O(0)          5.112e-04
   O2              2.556e-04   2.556e-04    -3.592    -3.592     0.000     30.40
Si            2.436e-06
   H4SiO4          2.428e-06   2.428e-06    -5.615    -5.615     0.000     52.08
   H3SiO4-         7.610e-09   7.546e-09    -8.119    -8.122    -0.004     27.95
   H2SiO4-2        1.119e-14   1.082e-14   -13.951   -13.966    -0.015     (0)  

------------------------------Saturation indices-------------------------------

  Phase               SI** log IAP   log K(298 K,   1 atm)

  Al(OH)3(a)       -1.57      9.23   10.80  Al(OH)3
  Albite          -11.04    -29.05  -18.00  NaAlSi3O8
  CH4(g)         -142.75   -145.55   -2.80  CH4
  Chalcedony       -2.06     -5.61   -3.55  SiO2
  CO2(g)           -3.50     -4.97   -1.47  CO2	 Pressure   0.0 atm, phi 1.000
  Gibbsite          1.12      9.23    8.11  Al(OH)3
  H2(g)           -41.29    -44.39   -3.10  H2
  H2O(g)           -1.50     -0.00    1.50  H2O
  Kaolinite        -0.20      7.24    7.43  Al2Si2O5(OH)4
  O2(g)            -0.70     -3.59   -2.89  O2	 Pressure   0.2 atm, phi 1.000
  Quartz           -1.63     -5.61   -3.98  SiO2
  SiO2(a)          -2.90     -5.61   -2.71  SiO2

**For a gas, SI = log10(fugacity). Fugacity = pressure * phi / 1 atm.
  For ideal gases, phi = 1.

Reaction step 13.

Using solution 1.	
Using pure phase assemblage 1.	
Using kinetics 1.	

Kinetics 1.	

	Time step: 4.73364e+07 seconds  (Incremented time: 6.15373e+08 seconds)

	Rate name       Delta Moles Total Moles   Reactant        Coefficient

	Albite           -6.766e-08   1.000e-01   Albite                    1

-------------------------------Phase assemblage--------------------------------

                                                      Moles in assemblage
Phase               SI  log IAP  log K(T, P)   Initial       Final       Delta

CO2(g)           -3.50    -4.97     -1.47    1.000e+01   1.000e+01  -2.061e-09
O2(g)            -0.70    -3.59     -2.89    1.000e+01   1.000e+01   6.491e-12

-----------------------------Solution composition------------------------------

	Elements           Molality       Moles

	Al                8.796e-07   8.796e-07
	C                 1.126e-04   1.126e-04
	Na                8.796e-07   8.796e-07
	Si                2.639e-06   2.639e-06

----------------------------Description of solution----------------------------

                                       pH  =   7.324      Charge balance
                                       pe  =  13.298      Adjusted to redox equilibrium
      Specific Conductance (µS/cm,  25°C)  = 4
                          Density (g/cm³)  =   0.99705
                               Volume (L)  =   1.00298
                        Activity of water  =   1.000
                 Ionic strength (mol/kgw)  =   5.207e-05
                       Mass of water (kg)  =   1.000e+00
                 Total alkalinity (eq/kg)  =   1.056e-04
                       Total CO2 (mol/kg)  =   1.126e-04
                         Temperature (°C)  =  25.00
                  Electrical balance (eq)  =  -1.021e-04
 Percent error, 100*(Cat-|An|)/(Cat+|An|)  = -98.20
                               Iterations  =   5
                                  Total H  = 1.110125e+02
                                  Total O  = 5.550706e+01

----------------------------Distribution of species----------------------------

                                               Log       Log       Log    mole V
   Species          Molality    Activity  Molality  Activity     Gamma   cm³/mol

   OH-             2.151e-07   2.133e-07    -6.667    -6.671    -0.004     -4.13
   H+              4.784e-08   4.745e-08    -7.320    -7.324    -0.004      0.00
   H2O             5.551e+01   1.000e+00     1.744    -0.000     0.000     18.07
Al            8.796e-07
   Al(OH)4-        8.514e-07   8.443e-07    -6.070    -6.073    -0.004     (0)  
   Al(OH)3         2.126e-08   2.126e-08    -7.673    -7.673     0.000     (0)  
   Al(OH)2+        6.902e-09   6.845e-09    -8.161    -8.165    -0.004     (0)  
   AlOH+2          4.285e-11   4.144e-11   -10.368   -10.383    -0.015    -27.85
   Al+3            2.133e-13   1.979e-13   -12.671   -12.703    -0.032    -42.47
C(-4)         0.000e+00
   CH4             0.000e+00   0.000e+00  -145.553  -145.553     0.000     35.46
C(4)          1.126e-04
   HCO3-           1.017e-04   1.009e-04    -3.993    -3.996    -0.004     24.66
   CO2             1.076e-05   1.076e-05    -4.968    -4.968     0.000     34.43
   CO3-2           1.031e-07   9.970e-08    -6.987    -7.001    -0.015     -5.37
   NaHCO3          4.947e-11   4.947e-11   -10.306   -10.306     0.000      1.80
   (CO2)2          2.125e-12   2.125e-12   -11.673   -11.673     0.000     68.87
   NaCO3-          1.633e-12   1.619e-12   -11.787   -11.791    -0.004     -1.06
H(0)          0.000e+00
   H2              0.000e+00   0.000e+00   -44.394   -44.394     0.000     28.61
Na            8.796e-07
   Na+             8.796e-07   8.722e-07    -6.056    -6.059    -0.004     -1.51
   NaHCO3          4.947e-11   4.947e-11   -10.306   -10.306     0.000      1.80
   NaCO3-          1.633e-12   1.619e-12   -11.787   -11.791    -0.004     -1.06
   NaOH            1.861e-23   1.861e-23   -22.730   -22.730     0.000     (0)  
O(0)          5.112e-04
   O2              2.556e-04   2.556e-04    -3.592    -3.592     0.000     30.40
Si            2.639e-06
   H4SiO4          2.631e-06   2.631e-06    -5.580    -5.580     0.000     52.08
   H3SiO4-         8.244e-09   8.175e-09    -8.084    -8.088    -0.004     27.95
   H2SiO4-2        1.212e-14   1.172e-14   -13.917   -13.931    -0.015     (0)  

------------------------------Saturation indices-------------------------------

  Phase               SI** log IAP   log K(298 K,   1 atm)

  Al(OH)3(a)       -1.53      9.27   10.80  Al(OH)3
  Albite          -10.87    -28.87  -18.00  NaAlSi3O8
  CH4(g)         -142.75   -145.55   -2.80  CH4
  Chalcedony       -2.03     -5.58   -3.55  SiO2
  CO2(g)           -3.50     -4.97   -1.47  CO2	 Pressure   0.0 atm, phi 1.000
  Gibbsite          1.16      9.27    8.11  Al(OH)3
  H2(g)           -41.29    -44.39   -3.10  H2
  H2O(g)           -1.50     -0.00    1.50  H2O
  Kaolinite        -0.06      7.38    7.43  Al2Si2O5(OH)4
  O2(g)            -0.70     -3.59   -2.89  O2	 Pressure   0.2 atm, phi 1.000
  Quartz           -1.60     -5.58   -3.98  SiO2
  SiO2(a)          -2.87     -5.58   -2.71  SiO2

**For a gas, SI = log10(fugacity). Fugacity = pressure * phi / 1 atm.
  For ideal gases, phi = 1.

Reaction step 14.

Using solution 1.	
Using pure phase assemblage 1.	
Using kinetics 1.	

Kinetics 1.	

	Time step: 4.73364e+07 seconds  (Incremented time: 6.6271e+08 seconds)

	Rate name       Delta Moles Total Moles   Reactant        Coefficient

	Albite           -6.766e-08   1.000e-01   Albite                    1

-------------------------------Phase assemblage--------------------------------

                                                      Moles in assemblage
Phase               SI  log IAP  log K(T, P)   Initial       Final       Delta

CO2(g)           -3.50    -4.97     -1.47    1.000e+01   1.000e+01  -2.061e-09
O2(g)            -0.70    -3.59     -2.89    1.000e+01   1.000e+01   6.503e-12

-----------------------------Solution composition------------------------------

	Elements           Molality       Moles

	Al                9.473e-07   9.473e-07
	C                 1.126e-04   1.126e-04
	Na                9.473e-07   9.473e-07
	Si                2.842e-06   2.842e-06

----------------------------Description of solution----------------------------

                                       pH  =   7.324      Charge balance
                                       pe  =  13.298      Adjusted to redox equilibrium
      Specific Conductance (µS/cm,  25°C)  = 4
                          Density (g/cm³)  =   0.99705
                               Volume (L)  =   1.00298
                        Activity of water  =   1.000
                 Ionic strength (mol/kgw)  =   5.214e-05
                       Mass of water (kg)  =   1.000e+00
                 Total alkalinity (eq/kg)  =   1.059e-04
                       Total CO2 (mol/kg)  =   1.126e-04
                         Temperature (°C)  =  25.00
                  Electrical balance (eq)  =  -1.021e-04
 Percent error, 100*(Cat-|An|)/(Cat+|An|)  = -98.07
                               Iterations  =   5
                                  Total H  = 1.110125e+02
                                  Total O  = 5.550706e+01

----------------------------Distribution of species----------------------------

                                               Log       Log       Log    mole V
   Species          Molality    Activity  Molality  Activity     Gamma   cm³/mol

   OH-             2.151e-07   2.133e-07    -6.667    -6.671    -0.004     -4.13
   H+              4.784e-08   4.745e-08    -7.320    -7.324    -0.004      0.00
   H2O             5.551e+01   1.000e+00     1.744    -0.000     0.000     18.07
Al            9.473e-07
   Al(OH)4-        9.169e-07   9.092e-07    -6.038    -6.041    -0.004     (0)  
   Al(OH)3         2.289e-08   2.289e-08    -7.640    -7.640     0.000     (0)  
   Al(OH)2+        7.433e-09   7.371e-09    -8.129    -8.132    -0.004     (0)  
   AlOH+2          4.614e-11   4.462e-11   -10.336   -10.350    -0.015    -27.85
   Al+3            2.297e-13   2.131e-13   -12.639   -12.671    -0.032    -42.47
C(-4)         0.000e+00
   CH4             0.000e+00   0.000e+00  -145.553  -145.553     0.000     35.46
C(4)          1.126e-04
   HCO3-           1.017e-04   1.009e-04    -3.993    -3.996    -0.004     24.66
   CO2             1.076e-05   1.076e-05    -4.968    -4.968     0.000     34.43
   CO3-2           1.031e-07   9.970e-08    -6.987    -7.001    -0.015     -5.36
   NaHCO3          5.328e-11   5.328e-11   -10.273   -10.273     0.000      1.80
   (CO2)2          2.125e-12   2.125e-12   -11.673   -11.673     0.000     68.87
   NaCO3-          1.759e-12   1.744e-12   -11.755   -11.758    -0.004     -1.06
H(0)          0.000e+00
   H2              0.000e+00   0.000e+00   -44.394   -44.394     0.000     28.61
Na            9.473e-07
   Na+             9.472e-07   9.393e-07    -6.024    -6.027    -0.004     -1.51
   NaHCO3          5.328e-11   5.328e-11   -10.273   -10.273     0.000      1.80
   NaCO3-          1.759e-12   1.744e-12   -11.755   -11.758    -0.004     -1.06
   NaOH            2.004e-23   2.004e-23   -22.698   -22.698     0.000     (0)  
O(0)          5.112e-04
   O2              2.556e-04   2.556e-04    -3.592    -3.592     0.000     30.40
Si            2.842e-06
   H4SiO4          2.833e-06   2.833e-06    -5.548    -5.548     0.000     52.08
   H3SiO4-         8.878e-09   8.804e-09    -8.052    -8.055    -0.004     27.95
   H2SiO4-2        1.305e-14   1.262e-14   -13.884   -13.899    -0.015     (0)  

------------------------------Saturation indices-------------------------------

  Phase               SI** log IAP   log K(298 K,   1 atm)

  Al(OH)3(a)       -1.50      9.30   10.80  Al(OH)3
  Albite          -10.71    -28.71  -18.00  NaAlSi3O8
  CH4(g)         -142.75   -145.55   -2.80  CH4
  Chalcedony       -2.00     -5.55   -3.55  SiO2
  CO2(g)           -3.50     -4.97   -1.47  CO2	 Pressure   0.0 atm, phi 1.000
  Gibbsite          1.19      9.30    8.11  Al(OH)3
  H2(g)           -41.29    -44.39   -3.10  H2
  H2O(g)           -1.50     -0.00    1.50  H2O
  Kaolinite         0.07      7.50    7.43  Al2Si2O5(OH)4
  O2(g)            -0.70     -3.59   -2.89  O2	 Pressure   0.2 atm, phi 1.000
  Quartz           -1.57     -5.55   -3.98  SiO2
  SiO2(a)          -2.84     -5.55   -2.71  SiO2

**For a gas, SI = log10(fugacity). Fugacity = pressure * phi / 1 atm.
  For ideal gases, phi = 1.

Reaction step 15.

Using solution 1.	
Using pure phase assemblage 1.	
Using kinetics 1.	

Kinetics 1.	

	Time step: 4.73364e+07 seconds  (Incremented time: 7.10046e+08 seconds)

	Rate name       Delta Moles Total Moles   Reactant        Coefficient

	Albite           -6.766e-08   1.000e-01   Albite                    1

-------------------------------Phase assemblage--------------------------------

                                                      Moles in assemblage
Phase               SI  log IAP  log K(T, P)   Initial       Final       Delta

CO2(g)           -3.50    -4.97     -1.47    1.000e+01   1.000e+01  -2.061e-09
O2(g)            -0.70    -3.59     -2.89    1.000e+01   1.000e+01   6.509e-12

[...]
                        Activity of water  =   1.000
                 Ionic strength (mol/kgw)  =   5.779e-05
                       Mass of water (kg)  =   1.000e+00
                 Total alkalinity (eq/kg)  =   1.283e-04
                       Total CO2 (mol/kg)  =   1.128e-04
                         Temperature (°C)  =  25.00
                  Electrical balance (eq)  =  -1.021e-04
 Percent error, 100*(Cat-|An|)/(Cat+|An|)  = -88.46
                               Iterations  =   5
                                  Total H  = 1.110125e+02
                                  Total O  = 5.550711e+01

----------------------------Distribution of species----------------------------

                                               Log       Log       Log    mole V
   Species          Molality    Activity  Molality  Activity     Gamma   cm³/mol

   OH-             2.155e-07   2.136e-07    -6.667    -6.670    -0.004     -4.13
   H+              4.780e-08   4.739e-08    -7.321    -7.324    -0.004      0.00
   H2O             5.551e+01   1.000e+00     1.744    -0.000     0.000     18.07
Al            6.561e-06
   Al(OH)4-        6.351e-06   6.295e-06    -5.197    -5.201    -0.004     (0)  
   Al(OH)3         1.583e-07   1.583e-07    -6.801    -6.801     0.000     (0)  
   Al(OH)2+        5.136e-08   5.091e-08    -7.289    -7.293    -0.004     (0)  
   AlOH+2          3.188e-10   3.078e-10    -9.496    -9.512    -0.015    -27.85
   Al+3            1.589e-12   1.468e-12   -11.799   -11.833    -0.034    -42.47
C(-4)         0.000e+00
   CH4             0.000e+00   0.000e+00  -145.553  -145.553     0.000     35.46
C(4)          1.128e-04
   HCO3-           1.019e-04   1.010e-04    -3.992    -3.996    -0.004     24.66
   CO2             1.076e-05   1.076e-05    -4.968    -4.968     0.000     34.43
   CO3-2           1.035e-07   9.995e-08    -6.985    -7.000    -0.015     -5.36
   NaHCO3          3.693e-10   3.693e-10    -9.433    -9.433     0.000      1.80
   NaCO3-          1.221e-11   1.210e-11   -10.913   -10.917    -0.004     -1.06
   (CO2)2          2.125e-12   2.125e-12   -11.673   -11.673     0.000     68.87
H(0)          0.000e+00
   H2              0.000e+00   0.000e+00   -44.394   -44.394     0.000     28.61
Na            6.561e-06
   Na+             6.560e-06   6.503e-06    -5.183    -5.187    -0.004     -1.51
   NaHCO3          3.693e-10   3.693e-10    -9.433    -9.433     0.000      1.80
   NaCO3-          1.221e-11   1.210e-11   -10.913   -10.917    -0.004     -1.06
   NaOH            1.389e-22   1.389e-22   -21.857   -21.857     0.000     (0)  
O(0)          5.112e-04
   O2              2.556e-04   2.556e-04    -3.592    -3.592     0.000     30.40
Si            1.968e-05
   H4SiO4          1.962e-05   1.962e-05    -4.707    -4.707     0.000     52.08
   H3SiO4-         6.159e-08   6.105e-08    -7.210    -7.214    -0.004     27.95
   H2SiO4-2        9.078e-14   8.764e-14   -13.042   -13.057    -0.015     (0)  

------------------------------Saturation indices-------------------------------

  Phase               SI** log IAP   log K(298 K,   1 atm)

  Al(OH)3(a)       -0.66     10.14   10.80  Al(OH)3
  Albite           -6.51    -24.51  -18.00  NaAlSi3O8
  CH4(g)         -142.75   -145.55   -2.80  CH4
  Chalcedony       -1.16     -4.71   -3.55  SiO2
  CO2(g)           -3.50     -4.97   -1.47  CO2	 Pressure   0.0 atm, phi 1.000
  Gibbsite          2.03     10.14    8.11  Al(OH)3
  H2(g)           -41.29    -44.39   -3.10  H2
  H2O(g)           -1.50     -0.00    1.50  H2O
  Kaolinite         3.43     10.87    7.43  Al2Si2O5(OH)4
  O2(g)            -0.70     -3.59   -2.89  O2	 Pressure   0.2 atm, phi 1.000
  Quartz           -0.73     -4.71   -3.98  SiO2
  SiO2(a)          -2.00     -4.71   -2.71  SiO2

**For a gas, SI = log10(fugacity). Fugacity = pressure * phi / 1 atm.
  For ideal gases, phi = 1.

Reaction step 98.

Using solution 1.	
Using pure phase assemblage 1.	
Using kinetics 1.	

Kinetics 1.	

	Time step: 4.73364e+07 seconds  (Incremented time: 4.63897e+09 seconds)

	Rate name       Delta Moles Total Moles   Reactant        Coefficient

	Albite           -6.761e-08   9.999e-02   Albite                    1

-------------------------------Phase assemblage--------------------------------

                                                      Moles in assemblage
Phase               SI  log IAP  log K(T, P)   Initial       Final       Delta

CO2(g)           -3.50    -4.97     -1.47    1.000e+01   1.000e+01  -2.047e-09
O2(g)            -0.70    -3.59     -2.89    1.000e+01   1.000e+01   6.503e-12

-----------------------------Solution composition------------------------------

	Elements           Molality       Moles

	Al                6.628e-06   6.628e-06
	C                 1.128e-04   1.128e-04
	Na                6.628e-06   6.628e-06
	Si                1.989e-05   1.989e-05

----------------------------Description of solution----------------------------

                                       pH  =   7.324      Charge balance
                                       pe  =  13.298      Adjusted to redox equilibrium
      Specific Conductance (µS/cm,  25°C)  = 4
                          Density (g/cm³)  =   0.99705
                               Volume (L)  =   1.00298
                        Activity of water  =   1.000
                 Ionic strength (mol/kgw)  =   5.786e-05
                       Mass of water (kg)  =   1.000e+00
                 Total alkalinity (eq/kg)  =   1.286e-04
                       Total CO2 (mol/kg)  =   1.128e-04
                         Temperature (°C)  =  25.00
                  Electrical balance (eq)  =  -1.021e-04
 Percent error, 100*(Cat-|An|)/(Cat+|An|)  = -88.35
                               Iterations  =   4
                                  Total H  = 1.110125e+02
                                  Total O  = 5.550711e+01

----------------------------Distribution of species----------------------------

                                               Log       Log       Log    mole V
   Species          Molality    Activity  Molality  Activity     Gamma   cm³/mol

   OH-             2.155e-07   2.136e-07    -6.667    -6.670    -0.004     -4.13
   H+              4.780e-08   4.739e-08    -7.321    -7.324    -0.004      0.00
   H2O             5.551e+01   1.000e+00     1.744    -0.000     0.000     18.07
Al            6.628e-06
   Al(OH)4-        6.416e-06   6.360e-06    -5.193    -5.197    -0.004     (0)  
   Al(OH)3         1.599e-07   1.599e-07    -6.796    -6.796     0.000     (0)  
   Al(OH)2+        5.189e-08   5.143e-08    -7.285    -7.289    -0.004     (0)  
   AlOH+2          3.221e-10   3.110e-10    -9.492    -9.507    -0.015    -27.85
   Al+3            1.605e-12   1.483e-12   -11.795   -11.829    -0.034    -42.47
C(-4)         0.000e+00
   CH4             0.000e+00   0.000e+00  -145.553  -145.553     0.000     35.46
C(4)          1.128e-04
   HCO3-           1.019e-04   1.010e-04    -3.992    -3.996    -0.004     24.66
   CO2             1.076e-05   1.076e-05    -4.968    -4.968     0.000     34.43
   CO3-2           1.035e-07   9.995e-08    -6.985    -7.000    -0.015     -5.36
   NaHCO3          3.731e-10   3.731e-10    -9.428    -9.428     0.000      1.80
   NaCO3-          1.234e-11   1.223e-11   -10.909   -10.913    -0.004     -1.06
   (CO2)2          2.125e-12   2.125e-12   -11.673   -11.673     0.000     68.87
H(0)          0.000e+00
   H2              0.000e+00   0.000e+00   -44.394   -44.394     0.000     28.61
Na            6.628e-06
   Na+             6.628e-06   6.570e-06    -5.179    -5.182    -0.004     -1.51
   NaHCO3          3.731e-10   3.731e-10    -9.428    -9.428     0.000      1.80
   NaCO3-          1.234e-11   1.223e-11   -10.909   -10.913    -0.004     -1.06
   NaOH            1.403e-22   1.403e-22   -21.853   -21.853     0.000     (0)  
O(0)          5.112e-04
   O2              2.556e-04   2.556e-04    -3.592    -3.592     0.000     30.40
Si            1.989e-05
   H4SiO4          1.982e-05   1.982e-05    -4.703    -4.703     0.000     52.08
   H3SiO4-         6.223e-08   6.168e-08    -7.206    -7.210    -0.004     27.95
   H2SiO4-2        9.172e-14   8.854e-14   -13.038   -13.053    -0.015     (0)  

------------------------------Saturation indices-------------------------------

  Phase               SI** log IAP   log K(298 K,   1 atm)

  Al(OH)3(a)       -0.66     10.14   10.80  Al(OH)3
  Albite           -6.49    -24.49  -18.00  NaAlSi3O8
  CH4(g)         -142.75   -145.55   -2.80  CH4
  Chalcedony       -1.15     -4.70   -3.55  SiO2
  CO2(g)           -3.50     -4.97   -1.47  CO2	 Pressure   0.0 atm, phi 1.000
  Gibbsite          2.03     10.14    8.11  Al(OH)3
  H2(g)           -41.29    -44.39   -3.10  H2
  H2O(g)           -1.50     -0.00    1.50  H2O
  Kaolinite         3.45     10.88    7.43  Al2Si2O5(OH)4
  O2(g)            -0.70     -3.59   -2.89  O2	 Pressure   0.2 atm, phi 1.000
  Quartz           -0.72     -4.70   -3.98  SiO2
  SiO2(a)          -1.99     -4.70   -2.71  SiO2

**For a gas, SI = log10(fugacity). Fugacity = pressure * phi / 1 atm.
  For ideal gases, phi = 1.

Reaction step 99.

Using solution 1.	
Using pure phase assemblage 1.	
Using kinetics 1.	

Kinetics 1.	

	Time step: 4.73364e+07 seconds  (Incremented time: 4.6863e+09 seconds)

	Rate name       Delta Moles Total Moles   Reactant        Coefficient

	Albite           -6.761e-08   9.999e-02   Albite                    1

-------------------------------Phase assemblage--------------------------------

                                                      Moles in assemblage
Phase               SI  log IAP  log K(T, P)   Initial       Final       Delta

CO2(g)           -3.50    -4.97     -1.47    1.000e+01   1.000e+01  -2.047e-09
O2(g)            -0.70    -3.59     -2.89    1.000e+01   1.000e+01   6.514e-12

-----------------------------Solution composition------------------------------

	Elements           Molality       Moles

	Al                6.696e-06   6.696e-06
	C                 1.128e-04   1.128e-04
	Na                6.696e-06   6.696e-06
	Si                2.009e-05   2.009e-05

----------------------------Description of solution----------------------------

                                       pH  =   7.324      Charge balance
                                       pe  =  13.298      Adjusted to redox equilibrium
      Specific Conductance (µS/cm,  25°C)  = 4
                          Density (g/cm³)  =   0.99705
                               Volume (L)  =   1.00298
                        Activity of water  =   1.000
                 Ionic strength (mol/kgw)  =   5.793e-05
                       Mass of water (kg)  =   1.000e+00
                 Total alkalinity (eq/kg)  =   1.288e-04
                       Total CO2 (mol/kg)  =   1.128e-04
                         Temperature (°C)  =  25.00
                  Electrical balance (eq)  =  -1.021e-04
 Percent error, 100*(Cat-|An|)/(Cat+|An|)  = -88.25
                               Iterations  =   4
                                  Total H  = 1.110125e+02
                                  Total O  = 5.550711e+01

----------------------------Distribution of species----------------------------

                                               Log       Log       Log    mole V
   Species          Molality    Activity  Molality  Activity     Gamma   cm³/mol

   OH-             2.155e-07   2.136e-07    -6.667    -6.670    -0.004     -4.13
   H+              4.780e-08   4.739e-08    -7.321    -7.324    -0.004      0.00
   H2O             5.551e+01   1.000e+00     1.744    -0.000     0.000     18.07
Al            6.696e-06
   Al(OH)4-        6.482e-06   6.425e-06    -5.188    -5.192    -0.004     (0)  
   Al(OH)3         1.615e-07   1.615e-07    -6.792    -6.792     0.000     (0)  
   Al(OH)2+        5.241e-08   5.195e-08    -7.281    -7.284    -0.004     (0)  
   AlOH+2          3.254e-10   3.141e-10    -9.488    -9.503    -0.015    -27.85
   Al+3            1.621e-12   1.499e-12   -11.790   -11.824    -0.034    -42.47
C(-4)         0.000e+00
   CH4             0.000e+00   0.000e+00  -145.553  -145.553     0.000     35.46
C(4)          1.128e-04
   HCO3-           1.019e-04   1.010e-04    -3.992    -3.996    -0.004     24.66
   CO2             1.076e-05   1.076e-05    -4.968    -4.968     0.000     34.43
   CO3-2           1.035e-07   9.995e-08    -6.985    -7.000    -0.015     -5.36
   NaHCO3          3.769e-10   3.769e-10    -9.424    -9.424     0.000      1.80
   NaCO3-          1.246e-11   1.235e-11   -10.904   -10.908    -0.004     -1.06
   (CO2)2          2.125e-12   2.125e-12   -11.673   -11.673     0.000     68.87
H(0)          0.000e+00
   H2              0.000e+00   0.000e+00   -44.394   -44.394     0.000     28.61
Na            6.696e-06
   Na+             6.696e-06   6.637e-06    -5.174    -5.178    -0.004     -1.51
   NaHCO3          3.769e-10   3.769e-10    -9.424    -9.424     0.000      1.80
   NaCO3-          1.246e-11   1.235e-11   -10.904   -10.908    -0.004     -1.06
   NaOH            1.418e-22   1.418e-22   -21.848   -21.848     0.000     (0)  
O(0)          5.112e-04
   O2              2.556e-04   2.556e-04    -3.592    -3.592     0.000     30.40
Si            2.009e-05
   H4SiO4          2.003e-05   2.003e-05    -4.698    -4.698     0.000     52.08
   H3SiO4-         6.287e-08   6.231e-08    -7.202    -7.205    -0.004     27.95
   H2SiO4-2        9.266e-14   8.945e-14   -13.033   -13.048    -0.015     (0)  

------------------------------Saturation indices-------------------------------

  Phase               SI** log IAP   log K(298 K,   1 atm)

  Al(OH)3(a)       -0.65     10.15   10.80  Al(OH)3
  Albite           -6.46    -24.47  -18.00  NaAlSi3O8
  CH4(g)         -142.75   -145.55   -2.80  CH4
  Chalcedony       -1.15     -4.70   -3.55  SiO2
  CO2(g)           -3.50     -4.97   -1.47  CO2	 Pressure   0.0 atm, phi 1.000
  Gibbsite          2.04     10.15    8.11  Al(OH)3
  H2(g)           -41.29    -44.39   -3.10  H2
  H2O(g)           -1.50     -0.00    1.50  H2O
  Kaolinite         3.47     10.90    7.43  Al2Si2O5(OH)4
  O2(g)            -0.70     -3.59   -2.89  O2	 Pressure   0.2 atm, phi 1.000
  Quartz           -0.72     -4.70   -3.98  SiO2
  SiO2(a)          -1.99     -4.70   -2.71  SiO2

**For a gas, SI = log10(fugacity). Fugacity = pressure * phi / 1 atm.
  For ideal gases, phi = 1.

Reaction step 100.

Using solution 1.	
Using pure phase assemblage 1.	
Using kinetics 1.	

Kinetics 1.	

	Time step: 4.73364e+07 seconds  (Incremented time: 4.73364e+09 seconds)

	Rate name       Delta Moles Total Moles   Reactant        Coefficient

	Albite           -6.761e-08   9.999e-02   Albite                    1

-------------------------------Phase assemblage--------------------------------

                                                      Moles in assemblage
Phase               SI  log IAP  log K(T, P)   Initial       Final       Delta

CO2(g)           -3.50    -4.97     -1.47    1.000e+01   1.000e+01  -2.047e-09
O2(g)            -0.70    -3.59     -2.89    1.000e+01   1.000e+01   6.505e-12

-----------------------------Solution composition------------------------------

	Elements           Molality       Moles

	Al                6.764e-06   6.764e-06
	C                 1.128e-04   1.128e-04
	Na                6.764e-06   6.764e-06
	Si                2.029e-05   2.029e-05

----------------------------Description of solution----------------------------

                                       pH  =   7.324      Charge balance
                                       pe  =  13.298      Adjusted to redox equilibrium
      Specific Conductance (µS/cm,  25°C)  = 4
                          Density (g/cm³)  =   0.99705
                               Volume (L)  =   1.00298
                        Activity of water  =   1.000
                 Ionic strength (mol/kgw)  =   5.800e-05
                       Mass of water (kg)  =   1.000e+00
                 Total alkalinity (eq/kg)  =   1.291e-04
                       Total CO2 (mol/kg)  =   1.128e-04
                         Temperature (°C)  =  25.00
                  Electrical balance (eq)  =  -1.021e-04
 Percent error, 100*(Cat-|An|)/(Cat+|An|)  = -88.14
                               Iterations  =   4
                                  Total H  = 1.110125e+02
                                  Total O  = 5.550711e+01

----------------------------Distribution of species----------------------------

                                               Log       Log       Log    mole V
   Species          Molality    Activity  Molality  Activity     Gamma   cm³/mol

   OH-             2.155e-07   2.136e-07    -6.667    -6.670    -0.004     -4.13
   H+              4.780e-08   4.739e-08    -7.321    -7.324    -0.004      0.00
   H2O             5.551e+01   1.000e+00     1.744    -0.000     0.000     18.07
Al            6.764e-06
   Al(OH)4-        6.547e-06   6.490e-06    -5.184    -5.188    -0.004     (0)  
   Al(OH)3         1.632e-07   1.632e-07    -6.787    -6.787     0.000     (0)  
   Al(OH)2+        5.294e-08   5.248e-08    -7.276    -7.280    -0.004     (0)  
   AlOH+2          3.287e-10   3.173e-10    -9.483    -9.499    -0.015    -27.85
   Al+3            1.638e-12   1.514e-12   -11.786   -11.820    -0.034    -42.47
C(-4)         0.000e+00
   CH4             0.000e+00   0.000e+00  -145.553  -145.553     0.000     35.46
C(4)          1.128e-04
   HCO3-           1.019e-04   1.010e-04    -3.992    -3.996    -0.004     24.66
   CO2             1.076e-05   1.076e-05    -4.968    -4.968     0.000     34.43
   CO3-2           1.035e-07   9.995e-08    -6.985    -7.000    -0.015     -5.36
   NaHCO3          3.807e-10   3.807e-10    -9.419    -9.419     0.000      1.80
   NaCO3-          1.259e-11   1.248e-11   -10.900   -10.904    -0.004     -1.06
   (CO2)2          2.125e-12   2.125e-12   -11.673   -11.673     0.000     68.87
H(0)          0.000e+00
   H2              0.000e+00   0.000e+00   -44.394   -44.394     0.000     28.61
Na            6.764e-06
   Na+             6.763e-06   6.704e-06    -5.170    -5.174    -0.004     -1.51
   NaHCO3          3.807e-10   3.807e-10    -9.419    -9.419     0.000      1.80
   NaCO3-          1.259e-11   1.248e-11   -10.900   -10.904    -0.004     -1.06
   NaOH            1.432e-22   1.432e-22   -21.844   -21.844     0.000     (0)  
O(0)          5.112e-04
   O2              2.556e-04   2.556e-04    -3.592    -3.592     0.000     30.40
Si            2.029e-05
   H4SiO4          2.023e-05   2.023e-05    -4.694    -4.694     0.000     52.08
   H3SiO4-         6.350e-08   6.294e-08    -7.197    -7.201    -0.004     27.95
   H2SiO4-2        9.360e-14   9.035e-14   -13.029   -13.044    -0.015     (0)  

------------------------------Saturation indices-------------------------------

  Phase               SI** log IAP   log K(298 K,   1 atm)

  Al(OH)3(a)       -0.65     10.15   10.80  Al(OH)3
  Albite           -6.44    -24.44  -18.00  NaAlSi3O8
  CH4(g)         -142.75   -145.55   -2.80  CH4
  Chalcedony       -1.14     -4.69   -3.55  SiO2
  CO2(g)           -3.50     -4.97   -1.47  CO2	 Pressure   0.0 atm, phi 1.000
  Gibbsite          2.04     10.15    8.11  Al(OH)3
  H2(g)           -41.29    -44.39   -3.10  H2
  H2O(g)           -1.50     -0.00    1.50  H2O
  Kaolinite         3.48     10.92    7.43  Al2Si2O5(OH)4
  O2(g)            -0.70     -3.59   -2.89  O2	 Pressure   0.2 atm, phi 1.000
  Quartz           -0.71     -4.69   -3.98  SiO2
  SiO2(a)          -1.98     -4.69   -2.71  SiO2

**For a gas, SI = log10(fugacity). Fugacity = pressure * phi / 1 atm.
  For ideal gases, phi = 1.

------------------
End of simulation.
------------------

------------------------------------
Reading input data for simulation 2.
------------------------------------

-------------------------------
End of Run after 7.762 Seconds.
-------------------------------

