   Input file: calcite1.phq
  Output file: calcite1.phq.out
Database file: C:\Users\Eirik\Desktop\phreeqc-3.6.2-15100-x64\database\phreeqc.dat

------------------
Reading data base.
------------------

	SOLUTION_MASTER_SPECIES
	SOLUTION_SPECIES
	PHASES
	EXCHANGE_MASTER_SPECIES
	EXCHANGE_SPECIES
	SURFACE_MASTER_SPECIES
	SURFACE_SPECIES
	RATES
	END
------------------------------------
Reading input data for simulation 1.
------------------------------------

	Database file: C:\Users\Eirik\Desktop\phreeqc-3.6.2-15100-x64\database\phreeqc.dat
	SOLUTION 1
		temp 25
	RATES 1
	Flourite
		start
		1 ka = parm(1)		#Rate constant for acid mechanism (mol/m^2/s)
		2 n = parm(2)		#Reaction order n with respect to H+	
		3 kn = parm(3)		#Rate constant for acid mechanism (mol/m^2/s)
		10 rate = ((ka*(ACT("H+")^n)) + kn)* (1 -  SR("Calcite"))	#Overall rate
		20 moles = rate*time
		30 save moles
		end
	KINETICS 1
	Calcite
		formula CaCO3
		m0  1e-3             			#Initial amount 1 mmol     	
		parms 0.501 1 1.5e-6			#Values for ka, n and kn
		time_steps 300 years in 100          #60 years in 100 time steps
	INCREMENTAL_REACTIONS true
	USER_PUNCH 				#Write the simulation time in years to the selected output file
		headings time_yr
		10 PUNCH total_time/3.1536e7 
	SELECTED_OUTPUT 
		file Cex1.xls
		reset false
		time true
		kinetic_reactants Calcite
		saturation_indices Calcite
		step true
		ph true
	USER_GRAPH 1
		-chart_title "Calcite saturation, T=25, no equilibrium gas"
		-axis_titles "Years" "SR" "Calcite remaining (mmol)"
		-headings time SR Calcite_remaining
		-initial_solutions  false
		-start
		10 graph_x total_time/3.1536e7 		
		20 graph_y SR("Calcite")		
		30 graph_sy KIN("Calcite")*1e3		
		-end
	END
-------------------------------------------
Beginning of initial solution calculations.
-------------------------------------------

Initial solution 1.	

-----------------------------Solution composition------------------------------

	Elements           Molality       Moles

	Pure water     

----------------------------Description of solution----------------------------

                                       pH  =   7.000    
                                       pe  =   4.000    
      Specific Conductance (µS/cm,  25°C)  = 0
                          Density (g/cm³)  =   0.99704
                               Volume (L)  =   1.00297
                        Activity of water  =   1.000
                 Ionic strength (mol/kgw)  =   1.007e-07
                       Mass of water (kg)  =   1.000e+00
                 Total alkalinity (eq/kg)  =   1.217e-09
                         Temperature (°C)  =  25.00
                  Electrical balance (eq)  =  -1.217e-09
 Percent error, 100*(Cat-|An|)/(Cat+|An|)  =  -0.60
                               Iterations  =   0
                                  Total H  = 1.110124e+02
                                  Total O  = 5.550622e+01

----------------------------Distribution of species----------------------------

                                               Log       Log       Log    mole V
   Species          Molality    Activity  Molality  Activity     Gamma   cm³/mol

   OH-             1.013e-07   1.012e-07    -6.995    -6.995    -0.000     -4.14
   H+              1.001e-07   1.000e-07    -7.000    -7.000    -0.000      0.00
   H2O             5.551e+01   1.000e+00     1.744     0.000     0.000     18.07
H(0)          1.416e-25
   H2              7.079e-26   7.079e-26   -25.150   -25.150     0.000     28.61
O(0)          0.000e+00
   O2              0.000e+00   0.000e+00   -42.080   -42.080     0.000     30.40

------------------------------Saturation indices-------------------------------

  Phase               SI** log IAP   log K(298 K,   1 atm)

  H2(g)           -22.05    -25.15   -3.10  H2
  H2O(g)           -1.50      0.00    1.50  H2O
  O2(g)           -39.19    -42.08   -2.89  O2

**For a gas, SI = log10(fugacity). Fugacity = pressure * phi / 1 atm.
  For ideal gases, phi = 1.

-----------------------------------------
Beginning of batch-reaction calculations.
-----------------------------------------

Reaction step 1.

Using solution 1.	
Using kinetics 1.	

Kinetics 1.	

	Time step: 9.46728e+07 seconds  (Incremented time: 9.46728e+07 seconds)

	Rate name       Delta Moles Total Moles   Reactant        Coefficient

	Calcite          -5.669e-06   9.943e-04   CaCO3                     1

-----------------------------Solution composition------------------------------

	Elements           Molality       Moles

	C                 5.669e-06   5.669e-06
	Ca                5.669e-06   5.669e-06

----------------------------Description of solution----------------------------

                                       pH  =   8.737      Charge balance
                                       pe  =   9.954      Adjusted to redox equilibrium
      Specific Conductance (µS/cm,  25°C)  = 2
                          Density (g/cm³)  =   0.99704
                               Volume (L)  =   1.00297
                        Activity of water  =   1.000
                 Ionic strength (mol/kgw)  =   1.715e-05
                       Mass of water (kg)  =   1.000e+00
                 Total alkalinity (eq/kg)  =   1.134e-05
                       Total CO2 (mol/kg)  =   5.669e-06
                         Temperature (°C)  =  25.00
                  Electrical balance (eq)  =  -1.217e-09
 Percent error, 100*(Cat-|An|)/(Cat+|An|)  =  -0.01
                               Iterations  =  53
                                  Total H  = 1.110124e+02
                                  Total O  = 5.550623e+01

----------------------------Distribution of species----------------------------

                                               Log       Log       Log    mole V
   Species          Molality    Activity  Molality  Activity     Gamma   cm³/mol

   OH-             5.550e-06   5.523e-06    -5.256    -5.258    -0.002     -4.13
   H+              1.841e-09   1.832e-09    -8.735    -8.737    -0.002      0.00
   H2O             5.551e+01   1.000e+00     1.744    -0.000     0.000     18.07
C(-4)         0.000e+00
   CH4             0.000e+00   0.000e+00  -132.787  -132.787     0.000     35.46
C(4)          5.669e-06
   HCO3-           5.502e-06   5.476e-06    -5.259    -5.262    -0.002     24.66
   CO3-2           1.429e-07   1.401e-07    -6.845    -6.853    -0.008     -5.38
   CO2             2.256e-08   2.256e-08    -7.647    -7.647     0.000     34.43
   CaCO3           1.309e-09   1.309e-09    -8.883    -8.883     0.000    -14.60
   CaHCO3+         3.902e-10   3.883e-10    -9.409    -9.411    -0.002      9.65
   (CO2)2          9.342e-18   9.342e-18   -17.030   -17.030     0.000     68.87
Ca            5.669e-06
   Ca+2            5.667e-06   5.559e-06    -5.247    -5.255    -0.008    -18.24
   CaCO3           1.309e-09   1.309e-09    -8.883    -8.883     0.000    -14.60
   CaOH+           5.059e-10   5.034e-10    -9.296    -9.298    -0.002     (0)  
   CaHCO3+         3.902e-10   3.883e-10    -9.409    -9.411    -0.002      9.65
H(0)          0.000e+00
   H2              0.000e+00   0.000e+00   -40.533   -40.533     0.000     28.61
O(0)          9.693e-12
   O2              4.847e-12   4.847e-12   -11.315   -11.315     0.000     30.40

------------------------------Saturation indices-------------------------------

  Phase               SI** log IAP   log K(298 K,   1 atm)

  Aragonite        -3.77    -12.11   -8.34  CaCO3
  Calcite          -3.63    -12.11   -8.48  CaCO3
  CH4(g)         -129.99   -132.79   -2.80  CH4
  CO2(g)           -6.18     -7.65   -1.47  CO2
  H2(g)           -37.43    -40.53   -3.10  H2
  H2O(g)           -1.50     -0.00    1.50  H2O
  O2(g)            -8.42    -11.31   -2.89  O2

**For a gas, SI = log10(fugacity). Fugacity = pressure * phi / 1 atm.
  For ideal gases, phi = 1.

Reaction step 2.

Using solution 1.	
Using kinetics 1.	

Kinetics 1.	

	Time step: 9.46728e+07 seconds  (Incremented time: 1.89346e+08 seconds)

	Rate name       Delta Moles Total Moles   Reactant        Coefficient

	Calcite          -5.567e-06   9.888e-04   CaCO3                     1

-----------------------------Solution composition------------------------------

	Elements           Molality       Moles

	C                 1.124e-05   1.124e-05
	Ca                1.124e-05   1.124e-05

----------------------------Description of solution----------------------------

                                       pH  =   9.022      Charge balance
                                       pe  =   9.670      Adjusted to redox equilibrium
      Specific Conductance (µS/cm,  25°C)  = 3
                          Density (g/cm³)  =   0.99704
                               Volume (L)  =   1.00297
                        Activity of water  =   1.000
                 Ionic strength (mol/kgw)  =   3.421e-05
                       Mass of water (kg)  =   1.000e+00
                 Total alkalinity (eq/kg)  =   2.247e-05
                       Total CO2 (mol/kg)  =   1.124e-05
                         Temperature (°C)  =  25.00
                  Electrical balance (eq)  =  -1.217e-09
 Percent error, 100*(Cat-|An|)/(Cat+|An|)  =  -0.00
                               Iterations  =  27
                                  Total H  = 1.110124e+02
                                  Total O  = 5.550625e+01

----------------------------Distribution of species----------------------------

                                               Log       Log       Log    mole V
   Species          Molality    Activity  Molality  Activity     Gamma   cm³/mol

   OH-             1.071e-05   1.064e-05    -4.970    -4.973    -0.003     -4.13
   H+              9.577e-10   9.512e-10    -9.019    -9.022    -0.003      0.00
   H2O             5.551e+01   1.000e+00     1.744    -0.000     0.000     18.07
C(-4)         0.000e+00
   CH4             0.000e+00   0.000e+00  -132.785  -132.785     0.000     35.46
C(4)          1.124e-05
   HCO3-           1.067e-05   1.059e-05    -4.972    -4.975    -0.003     24.66
   CO3-2           5.367e-07   5.223e-07    -6.270    -6.282    -0.012     -5.37
   CO2             2.266e-08   2.266e-08    -7.645    -7.645     0.000     34.43
   CaCO3           9.584e-09   9.584e-09    -8.018    -8.018     0.000    -14.60
   CaHCO3+         1.486e-09   1.476e-09    -8.828    -8.831    -0.003      9.65
   (CO2)2          9.423e-18   9.423e-18   -17.026   -17.026     0.000     68.87
Ca            1.124e-05
   Ca+2            1.122e-05   1.092e-05    -4.950    -4.962    -0.012    -18.23
   CaCO3           9.584e-09   9.584e-09    -8.018    -8.018     0.000    -14.60
   CaOH+           1.919e-09   1.906e-09    -8.717    -8.720    -0.003     (0)  
   CaHCO3+         1.486e-09   1.476e-09    -8.828    -8.831    -0.003      9.65
H(0)          0.000e+00
   H2              0.000e+00   0.000e+00   -40.533   -40.533     0.000     28.61
O(0)          9.684e-12
   O2              4.842e-12   4.842e-12   -11.315   -11.315     0.000     30.40

------------------------------Saturation indices-------------------------------

  Phase               SI** log IAP   log K(298 K,   1 atm)

  Aragonite        -2.91    -11.24   -8.34  CaCO3
  Calcite          -2.76    -11.24   -8.48  CaCO3
  CH4(g)         -129.98   -132.78   -2.80  CH4
  CO2(g)           -6.18     -7.64   -1.47  CO2
  H2(g)           -37.43    -40.53   -3.10  H2
  H2O(g)           -1.50     -0.00    1.50  H2O
  O2(g)            -8.42    -11.31   -2.89  O2

**For a gas, SI = log10(fugacity). Fugacity = pressure * phi / 1 atm.
  For ideal gases, phi = 1.

Reaction step 3.

Using solution 1.	
Using kinetics 1.	

Kinetics 1.	

	Time step: 9.46728e+07 seconds  (Incremented time: 2.84018e+08 seconds)

	Rate name       Delta Moles Total Moles   Reactant        Coefficient

	Calcite          -5.460e-06   9.833e-04   CaCO3                     1

-----------------------------Solution composition------------------------------

	Elements           Molality       Moles

	C                 1.670e-05   1.670e-05
	Ca                1.670e-05   1.670e-05

----------------------------Description of solution----------------------------

                                       pH  =   9.183      Charge balance
                                       pe  =   9.508      Adjusted to redox equilibrium
      Specific Conductance (µS/cm,  25°C)  = 5
                          Density (g/cm³)  =   0.99704
                               Volume (L)  =   1.00297
                        Activity of water  =   1.000
                 Ionic strength (mol/kgw)  =   5.112e-05
                       Mass of water (kg)  =   1.000e+00
                 Total alkalinity (eq/kg)  =   3.339e-05
                       Total CO2 (mol/kg)  =   1.670e-05
                         Temperature (°C)  =  25.00
                  Electrical balance (eq)  =  -1.217e-09
 Percent error, 100*(Cat-|An|)/(Cat+|An|)  =  -0.00
                               Iterations  =  22
                                  Total H  = 1.110124e+02
                                  Total O  = 5.550627e+01

----------------------------Distribution of species----------------------------

                                               Log       Log       Log    mole V
   Species          Molality    Activity  Molality  Activity     Gamma   cm³/mol

   OH-             1.555e-05   1.542e-05    -4.808    -4.812    -0.004     -4.13
   H+              6.617e-10   6.563e-10    -9.179    -9.183    -0.004      0.00
   H2O             5.551e+01   1.000e+00     1.744    -0.000     0.000     18.07
C(-4)         0.000e+00
   CH4             0.000e+00   0.000e+00  -132.783  -132.783     0.000     35.46
C(4)          1.670e-05
   HCO3-           1.551e-05   1.538e-05    -4.810    -4.813    -0.004     24.66
   CO3-2           1.136e-06   1.099e-06    -5.945    -5.959    -0.014     -5.37
   CaCO3           2.975e-08   2.975e-08    -7.527    -7.527     0.000    -14.60
   CO2             2.269e-08   2.269e-08    -7.644    -7.644     0.000     34.43
   CaHCO3+         3.188e-09   3.162e-09    -8.496    -8.500    -0.004      9.65
   (CO2)2          9.450e-18   9.450e-18   -17.025   -17.025     0.000     68.87
Ca            1.670e-05
   Ca+2            1.666e-05   1.612e-05    -4.778    -4.793    -0.014    -18.23
   CaCO3           2.975e-08   2.975e-08    -7.527    -7.527     0.000    -14.60
   CaOH+           4.109e-09   4.075e-09    -8.386    -8.390    -0.004     (0)  
   CaHCO3+         3.188e-09   3.162e-09    -8.496    -8.500    -0.004      9.65
H(0)          0.000e+00
   H2              0.000e+00   0.000e+00   -40.532   -40.532     0.000     28.61
O(0)          9.678e-12
   O2              4.839e-12   4.839e-12   -11.315   -11.315     0.000     30.40

------------------------------Saturation indices-------------------------------

  Phase               SI** log IAP   log K(298 K,   1 atm)

  Aragonite        -2.42    -10.75   -8.34  CaCO3
  Calcite          -2.27    -10.75   -8.48  CaCO3
  CH4(g)         -129.98   -132.78   -2.80  CH4
  CO2(g)           -6.18     -7.64   -1.47  CO2
  H2(g)           -37.43    -40.53   -3.10  H2
  H2O(g)           -1.50     -0.00    1.50  H2O
  O2(g)            -8.42    -11.32   -2.89  O2

**For a gas, SI = log10(fugacity). Fugacity = pressure * phi / 1 atm.
  For ideal gases, phi = 1.

Reaction step 4.

Using solution 1.	
Using kinetics 1.	

Kinetics 1.	

	Time step: 9.46728e+07 seconds  (Incremented time: 3.78691e+08 seconds)

	Rate name       Delta Moles Total Moles   Reactant        Coefficient

	Calcite          -5.326e-06   9.780e-04   CaCO3                     1

-----------------------------Solution composition------------------------------

	Elements           Molality       Moles

	C                 2.202e-05   2.202e-05
	Ca                2.202e-05   2.202e-05

----------------------------Description of solution----------------------------

                                       pH  =   9.293      Charge balance
                                       pe  =   9.398      Adjusted to redox equilibrium
      Specific Conductance (µS/cm,  25°C)  = 7
                          Density (g/cm³)  =   0.99705
                               Volume (L)  =   1.00297
                        Activity of water  =   1.000
                 Ionic strength (mol/kgw)  =   6.775e-05
                       Mass of water (kg)  =   1.000e+00
                 Total alkalinity (eq/kg)  =   4.405e-05
                       Total CO2 (mol/kg)  =   2.202e-05
                         Temperature (°C)  =  25.00
                  Electrical balance (eq)  =  -1.217e-09
 Percent error, 100*(Cat-|An|)/(Cat+|An|)  =  -0.00
                               Iterations  =  22
                                  Total H  = 1.110124e+02
                                  Total O  = 5.550628e+01

----------------------------Distribution of species----------------------------

                                               Log       Log       Log    mole V
   Species          Molality    Activity  Molality  Activity     Gamma   cm³/mol

   OH-             2.008e-05   1.989e-05    -4.697    -4.701    -0.004     -4.13
   H+              5.138e-10   5.090e-10    -9.289    -9.293    -0.004      0.00
   H2O             5.551e+01   1.000e+00     1.744    -0.000     0.000     18.07
C(-4)         0.000e+00
   CH4             0.000e+00   0.000e+00  -132.783  -132.783     0.000     35.46
C(4)          2.202e-05
   HCO3-           2.003e-05   1.984e-05    -4.698    -4.702    -0.004     24.66
   CO3-2           1.899e-06   1.828e-06    -5.721    -5.738    -0.017     -5.36
   CaCO3           6.487e-08   6.488e-08    -7.188    -7.188     0.000    -14.60
   CO2             2.271e-08   2.271e-08    -7.644    -7.644     0.000     34.43
   CaHCO3+         5.399e-09   5.348e-09    -8.268    -8.272    -0.004      9.65
   (CO2)2          9.463e-18   9.464e-18   -17.024   -17.024     0.000     68.87
Ca            2.202e-05
   Ca+2            2.195e-05   2.113e-05    -4.659    -4.675    -0.017    -18.22
   CaCO3           6.487e-08   6.488e-08    -7.188    -7.188     0.000    -14.60
   CaOH+           6.954e-09   6.888e-09    -8.158    -8.162    -0.004     (0)  
   CaHCO3+         5.399e-09   5.348e-09    -8.268    -8.272    -0.004      9.65
H(0)          0.000e+00
   H2              0.000e+00   0.000e+00   -40.532   -40.532     0.000     28.61
O(0)          9.681e-12
   O2              4.840e-12   4.840e-12   -11.315   -11.315     0.000     30.40

------------------------------Saturation indices-------------------------------

  Phase               SI** log IAP   log K(298 K,   1 atm)

  Aragonite        -2.08    -10.41   -8.34  CaCO3
  Calcite          -1.93    -10.41   -8.48  CaCO3
  CH4(g)         -129.98   -132.78   -2.80  CH4
  CO2(g)           -6.18     -7.64   -1.47  CO2
  H2(g)           -37.43    -40.53   -3.10  H2
  H2O(g)           -1.50     -0.00    1.50  H2O
  O2(g)            -8.42    -11.32   -2.89  O2

**For a gas, SI = log10(fugacity). Fugacity = pressure * phi / 1 atm.
  For ideal gases, phi = 1.

Reaction step 5.

Using solution 1.	
Using kinetics 1.	

Kinetics 1.	

	Time step: 9.46728e+07 seconds  (Incremented time: 4.73364e+08 seconds)

	Rate name       Delta Moles Total Moles   Reactant        Coefficient

	Calcite          -5.172e-06   9.728e-04   CaCO3                     1

-----------------------------Solution composition------------------------------

	Elements           Molality       Moles

	C                 2.720e-05   2.720e-05
	Ca                2.720e-05   2.720e-05

----------------------------Description of solution----------------------------

                                       pH  =   9.376      Charge balance
                                       pe  =   9.315      Adjusted to redox equilibrium
      Specific Conductance (µS/cm,  25°C)  = 9
                          Density (g/cm³)  =   0.99705
                               Volume (L)  =   1.00297
                        Activity of water  =   1.000
                 Ionic strength (mol/kgw)  =   8.399e-05
                       Mass of water (kg)  =   1.000e+00
                 Total alkalinity (eq/kg)  =   5.439e-05
                       Total CO2 (mol/kg)  =   2.720e-05
                         Temperature (°C)  =  25.00
                  Electrical balance (eq)  =  -1.217e-09
 Percent error, 100*(Cat-|An|)/(Cat+|An|)  =  -0.00
                               Iterations  =  21
                                  Total H  = 1.110124e+02
                                  Total O  = 5.550630e+01

----------------------------Distribution of species----------------------------

                                               Log       Log       Log    mole V
   Species          Molality    Activity  Molality  Activity     Gamma   cm³/mol

   OH-             2.430e-05   2.405e-05    -4.614    -4.619    -0.005     -4.13
   H+              4.254e-10   4.209e-10    -9.371    -9.376    -0.005      0.00
   H2O             5.551e+01   1.000e+00     1.744    -0.000     0.000     18.07
C(-4)         0.000e+00
   CH4             0.000e+00   0.000e+00  -132.783  -132.783     0.000     35.46
C(4)          2.720e-05
   HCO3-           2.426e-05   2.400e-05    -4.615    -4.620    -0.005     24.66
   CO3-2           2.790e-06   2.674e-06    -5.554    -5.573    -0.018     -5.36
   CaCO3           1.165e-07   1.165e-07    -6.934    -6.934     0.000    -14.60
   CO2             2.272e-08   2.272e-08    -7.644    -7.644     0.000     34.43
   CaHCO3+         8.027e-09   7.943e-09    -8.095    -8.100    -0.005      9.65
   (CO2)2          9.472e-18   9.472e-18   -17.024   -17.024     0.000     68.87
Ca            2.720e-05
   Ca+2            2.706e-05   2.594e-05    -4.568    -4.586    -0.018    -18.22
   CaCO3           1.165e-07   1.165e-07    -6.934    -6.934     0.000    -14.60
   CaOH+           1.034e-08   1.023e-08    -7.986    -7.990    -0.005     (0)  
   CaHCO3+         8.027e-09   7.943e-09    -8.095    -8.100    -0.005      9.65
H(0)          0.000e+00
   H2              0.000e+00   0.000e+00   -40.532   -40.532     0.000     28.61
O(0)          9.680e-12
   O2              4.840e-12   4.840e-12   -11.315   -11.315     0.000     30.40

------------------------------Saturation indices-------------------------------

  Phase               SI** log IAP   log K(298 K,   1 atm)

  Aragonite        -1.82    -10.16   -8.34  CaCO3
  Calcite          -1.68    -10.16   -8.48  CaCO3
  CH4(g)         -129.98   -132.78   -2.80  CH4
  CO2(g)           -6.18     -7.64   -1.47  CO2
  H2(g)           -37.43    -40.53   -3.10  H2
  H2O(g)           -1.50     -0.00    1.50  H2O
  O2(g)            -8.42    -11.32   -2.89  O2

**For a gas, SI = log10(fugacity). Fugacity = pressure * phi / 1 atm.
  For ideal gases, phi = 1.

Reaction step 6.

Using solution 1.	
Using kinetics 1.	

Kinetics 1.	

	Time step: 9.46728e+07 seconds  (Incremented time: 5.68037e+08 seconds)

	Rate name       Delta Moles Total Moles   Reactant        Coefficient

	Calcite          -5.002e-06   9.678e-04   CaCO3                     1

-----------------------------Solution composition------------------------------

	Elements           Molality       Moles

	C                 3.220e-05   3.220e-05
	Ca                3.220e-05   3.220e-05

----------------------------Description of solution----------------------------

                                       pH  =   9.441      Charge balance
                                       pe  =   9.250      Adjusted to redox equilibrium
      Specific Conductance (µS/cm,  25°C)  = 11
                          Density (g/cm³)  =   0.99705
                               Volume (L)  =   1.00297
                        Activity of water  =   1.000
                 Ionic strength (mol/kgw)  =   9.976e-05
                       Mass of water (kg)  =   1.000e+00
                 Total alkalinity (eq/kg)  =   6.439e-05
                       Total CO2 (mol/kg)  =   3.220e-05
                         Temperature (°C)  =  25.00
                  Electrical balance (eq)  =  -1.217e-09
 Percent error, 100*(Cat-|An|)/(Cat+|An|)  =  -0.00
                               Iterations  =  20
                                  Total H  = 1.110124e+02
                                  Total O  = 5.550631e+01

----------------------------Distribution of species----------------------------

                                               Log       Log       Log    mole V
   Species          Molality    Activity  Molality  Activity     Gamma   cm³/mol

   OH-             2.825e-05   2.792e-05    -4.549    -4.554    -0.005     -4.13
   H+              3.667e-10   3.625e-10    -9.436    -9.441    -0.005      0.00
   H2O             5.551e+01   1.000e+00     1.744    -0.000     0.000     18.07
C(-4)         0.000e+00
   CH4             0.000e+00   0.000e+00  -132.782  -132.782     0.000     35.46
C(4)          3.220e-05
   HCO3-           2.820e-05   2.788e-05    -4.550    -4.555    -0.005     24.66
   CO3-2           3.777e-06   3.606e-06    -5.423    -5.443    -0.020     -5.35
   CaCO3           1.850e-07   1.851e-07    -6.733    -6.733     0.000    -14.60
   CO2             2.272e-08   2.272e-08    -7.644    -7.644     0.000     34.43
   CaHCO3+         1.099e-08   1.086e-08    -7.959    -7.964    -0.005      9.65
   (CO2)2          9.477e-18   9.478e-18   -17.023   -17.023     0.000     68.87
Ca            3.220e-05
   Ca+2            3.199e-05   3.054e-05    -4.495    -4.515    -0.020    -18.22
   CaCO3           1.850e-07   1.851e-07    -6.733    -6.733     0.000    -14.60
   CaOH+           1.415e-08   1.398e-08    -7.849    -7.854    -0.005     (0)  
   CaHCO3+         1.099e-08   1.086e-08    -7.959    -7.964    -0.005      9.65
H(0)          0.000e+00
   H2              0.000e+00   0.000e+00   -40.532   -40.532     0.000     28.61
O(0)          9.672e-12
   O2              4.836e-12   4.836e-12   -11.316   -11.316     0.000     30.40

------------------------------Saturation indices-------------------------------

  Phase               SI** log IAP   log K(298 K,   1 atm)

  Aragonite        -1.62     -9.96   -8.34  CaCO3
  Calcite          -1.48     -9.96   -8.48  CaCO3
  CH4(g)         -129.98   -132.78   -2.80  CH4
  CO2(g)           -6.18     -7.64   -1.47  CO2
  H2(g)           -37.43    -40.53   -3.10  H2
  H2O(g)           -1.50     -0.00    1.50  H2O
  O2(g)            -8.42    -11.32   -2.89  O2

**For a gas, SI = log10(fugacity). Fugacity = pressure * phi / 1 atm.
  For ideal gases, phi = 1.

Reaction step 7.

Using solution 1.	
Using kinetics 1.	

Kinetics 1.	

	Time step: 9.46728e+07 seconds  (Incremented time: 6.6271e+08 seconds)

	Rate name       Delta Moles Total Moles   Reactant        Coefficient

	Calcite          -4.820e-06   9.630e-04   CaCO3                     1

-----------------------------Solution composition------------------------------

	Elements           Molality       Moles

	C                 3.702e-05   3.702e-05
	Ca                3.702e-05   3.702e-05

----------------------------Description of solution----------------------------

                                       pH  =   9.493      Charge balance
                                       pe  =   9.198      Adjusted to redox equilibrium
      Specific Conductance (µS/cm,  25°C)  = 12
                          Density (g/cm³)  =   0.99705
                               Volume (L)  =   1.00297
                        Activity of water  =   1.000
                 Ionic strength (mol/kgw)  =   1.150e-04
                       Mass of water (kg)  =   1.000e+00
                 Total alkalinity (eq/kg)  =   7.403e-05
                       Total CO2 (mol/kg)  =   3.702e-05
                         Temperature (°C)  =  25.00
                  Electrical balance (eq)  =  -1.217e-09
 Percent error, 100*(Cat-|An|)/(Cat+|An|)  =  -0.00
                               Iterations  =  18
                                  Total H  = 1.110124e+02
                                  Total O  = 5.550633e+01

----------------------------Distribution of species----------------------------

                                               Log       Log       Log    mole V
   Species          Molality    Activity  Molality  Activity     Gamma   cm³/mol

   OH-             3.192e-05   3.153e-05    -4.496    -4.501    -0.005     -4.13
   H+              3.250e-10   3.211e-10    -9.488    -9.493    -0.005      0.00
   H2O             5.551e+01   1.000e+00     1.744    -0.000     0.000     18.07
C(-4)         0.000e+00
   CH4             0.000e+00   0.000e+00  -132.783  -132.783     0.000     35.46
C(4)          3.702e-05
   HCO3-           3.188e-05   3.149e-05    -4.497    -4.502    -0.005     24.66
   CO3-2           4.832e-06   4.599e-06    -5.316    -5.337    -0.021     -5.35
   CaCO3           2.700e-07   2.700e-07    -6.569    -6.569     0.000    -14.60
   CO2             2.273e-08   2.273e-08    -7.643    -7.643     0.000     34.43
   CaHCO3+         1.421e-08   1.404e-08    -7.847    -7.853    -0.005      9.65
   (CO2)2          9.481e-18   9.482e-18   -17.023   -17.023     0.000     68.87
Ca            3.702e-05
   Ca+2            3.671e-05   3.494e-05    -4.435    -4.457    -0.021    -18.22
   CaCO3           2.700e-07   2.700e-07    -6.569    -6.569     0.000    -14.60
   CaOH+           1.829e-08   1.806e-08    -7.738    -7.743    -0.005     (0)  
   CaHCO3+         1.421e-08   1.404e-08    -7.847    -7.853    -0.005      9.65
H(0)          0.000e+00
   H2              0.000e+00   0.000e+00   -40.532   -40.532     0.000     28.61
O(0)          9.677e-12
   O2              4.839e-12   4.839e-12   -11.315   -11.315     0.000     30.40

------------------------------Saturation indices-------------------------------

  Phase               SI** log IAP   log K(298 K,   1 atm)

  Aragonite        -1.46     -9.79   -8.34  CaCO3
  Calcite          -1.31     -9.79   -8.48  CaCO3
  CH4(g)         -129.98   -132.78   -2.80  CH4
  CO2(g)           -6.18     -7.64   -1.47  CO2
  H2(g)           -37.43    -40.53   -3.10  H2
  H2O(g)           -1.50     -0.00    1.50  H2O
  O2(g)            -8.42    -11.32   -2.89  O2

**For a gas, SI = log10(fugacity). Fugacity = pressure * phi / 1 atm.
  For ideal gases, phi = 1.

Reaction step 8.

Using solution 1.	
Using kinetics 1.	

Kinetics 1.	

	Time step: 9.46728e+07 seconds  (Incremented time: 7.57382e+08 seconds)

	Rate name       Delta Moles Total Moles   Reactant        Coefficient

	Calcite          -4.631e-06   9.584e-04   CaCO3                     1

-----------------------------Solution composition------------------------------

	Elements           Molality       Moles

	C                 4.165e-05   4.165e-05
	Ca                4.165e-05   4.165e-05

----------------------------Description of solution----------------------------

                                       pH  =   9.537      Charge balance
                                       pe  =   9.154      Adjusted to redox equilibrium
      Specific Conductance (µS/cm,  25°C)  = 14
                          Density (g/cm³)  =   0.99705
                               Volume (L)  =   1.00297
                        Activity of water  =   1.000
                 Ionic strength (mol/kgw)  =   1.297e-04
                       Mass of water (kg)  =   1.000e+00
                 Total alkalinity (eq/kg)  =   8.330e-05
                       Total CO2 (mol/kg)  =   4.165e-05
                         Temperature (°C)  =  25.00
                  Electrical balance (eq)  =  -1.217e-09
 Percent error, 100*(Cat-|An|)/(Cat+|An|)  =  -0.00
                               Iterations  =  18
                                  Total H  = 1.110124e+02
                                  Total O  = 5.550634e+01

----------------------------Distribution of species----------------------------

                                               Log       Log       Log    mole V
   Species          Molality    Activity  Molality  Activity     Gamma   cm³/mol

   OH-             3.534e-05   3.488e-05    -4.452    -4.457    -0.006     -4.13
   H+              2.940e-10   2.902e-10    -9.532    -9.537    -0.006      0.00
   H2O             5.551e+01   1.000e+00     1.744    -0.000     0.000     18.07
C(-4)         0.000e+00
   CH4             0.000e+00   0.000e+00  -132.783  -132.783     0.000     35.46
C(4)          4.165e-05
   HCO3-           3.530e-05   3.484e-05    -4.452    -4.458    -0.006     24.66
   CO3-2           5.934e-06   5.631e-06    -5.227    -5.249    -0.023     -5.35
   CaCO3           3.702e-07   3.702e-07    -6.432    -6.432     0.000    -14.60
   CO2             2.273e-08   2.273e-08    -7.643    -7.643     0.000     34.43
   CaHCO3+         1.762e-08   1.739e-08    -7.754    -7.760    -0.006      9.65
   (CO2)2          9.485e-18   9.485e-18   -17.023   -17.023     0.000     68.87
Ca            4.165e-05
   Ca+2            4.124e-05   3.913e-05    -4.385    -4.407    -0.023    -18.21
   CaCO3           3.702e-07   3.702e-07    -6.432    -6.432     0.000    -14.60
   CaOH+           2.268e-08   2.238e-08    -7.644    -7.650    -0.006     (0)  
   CaHCO3+         1.762e-08   1.739e-08    -7.754    -7.760    -0.006      9.65
H(0)          0.000e+00
   H2              0.000e+00   0.000e+00   -40.532   -40.532     0.000     28.61
O(0)          9.678e-12
   O2              4.839e-12   4.839e-12   -11.315   -11.315     0.000     30.40

------------------------------Saturation indices-------------------------------

  Phase               SI** log IAP   log K(298 K,   1 atm)

  Aragonite        -1.32     -9.66   -8.34  CaCO3
  Calcite          -1.18     -9.66   -8.48  CaCO3
  CH4(g)         -129.98   -132.78   -2.80  CH4
  CO2(g)           -6.18     -7.64   -1.47  CO2
  H2(g)           -37.43    -40.53   -3.10  H2
  H2O(g)           -1.50     -0.00    1.50  H2O
  O2(g)            -8.42    -11.32   -2.89  O2

**For a gas, SI = log10(fugacity). Fugacity = pressure * phi / 1 atm.
  For ideal gases, phi = 1.

Reaction step 9.

Using solution 1.	
Using kinetics 1.	

Kinetics 1.	

	Time step: 9.46728e+07 seconds  (Incremented time: 8.52055e+08 seconds)

	Rate name       Delta Moles Total Moles   Reactant        Coefficient

	Calcite          -4.437e-06   9.539e-04   CaCO3                     1

-----------------------------Solution composition------------------------------

	Elements           Molality       Moles

	C                 4.609e-05   4.609e-05
	Ca                4.609e-05   4.609e-05

----------------------------Description of solution----------------------------

                                       pH  =   9.575      Charge balance
                                       pe  =   9.117      Adjusted to redox equilibrium
      Specific Conductance (µS/cm,  25°C)  = 15
                          Density (g/cm³)  =   0.99705
                               Volume (L)  =   1.00296
                        Activity of water  =   1.000
                 Ionic strength (mol/kgw)  =   1.438e-04
                       Mass of water (kg)  =   1.000e+00
                 Total alkalinity (eq/kg)  =   9.217e-05
                       Total CO2 (mol/kg)  =   4.609e-05
                         Temperature (°C)  =  25.00
                  Electrical balance (eq)  =  -1.217e-09
 Percent error, 100*(Cat-|An|)/(Cat+|An|)  =  -0.00
                               Iterations  =  18
                                  Total H  = 1.110124e+02
                                  Total O  = 5.550636e+01

----------------------------Distribution of species----------------------------

                                               Log       Log       Log    mole V
   Species          Molality    Activity  Molality  Activity     Gamma   cm³/mol

   OH-             3.853e-05   3.800e-05    -4.414    -4.420    -0.006     -4.13
   H+              2.700e-10   2.663e-10    -9.569    -9.575    -0.006      0.00
   H2O             5.551e+01   1.000e+00     1.744    -0.000     0.000     18.07
C(-4)         0.000e+00
   CH4             0.000e+00   0.000e+00  -132.782  -132.782     0.000     35.46
C(4)          4.609e-05
   HCO3-           3.849e-05   3.797e-05    -4.415    -4.421    -0.006     24.66
   CO3-2           7.064e-06   6.685e-06    -5.151    -5.175    -0.024     -5.35
   CaCO3           4.841e-07   4.841e-07    -6.315    -6.315     0.000    -14.60
   CO2             2.273e-08   2.274e-08    -7.643    -7.643     0.000     34.43
   CaHCO3+         2.117e-08   2.088e-08    -7.674    -7.680    -0.006      9.65
   (CO2)2          9.487e-18   9.487e-18   -17.023   -17.023     0.000     68.87
Ca            4.609e-05
   Ca+2            4.555e-05   4.311e-05    -4.341    -4.365    -0.024    -18.21
   CaCO3           4.841e-07   4.841e-07    -6.315    -6.315     0.000    -14.60
   CaOH+           2.724e-08   2.686e-08    -7.565    -7.571    -0.006     (0)  
   CaHCO3+         2.117e-08   2.088e-08    -7.674    -7.680    -0.006      9.65
H(0)          0.000e+00
   H2              0.000e+00   0.000e+00   -40.532   -40.532     0.000     28.61
O(0)          9.675e-12
   O2              4.837e-12   4.838e-12   -11.315   -11.315     0.000     30.40

------------------------------Saturation indices-------------------------------

  Phase               SI** log IAP   log K(298 K,   1 atm)

  Aragonite        -1.20     -9.54   -8.34  CaCO3
  Calcite          -1.06     -9.54   -8.48  CaCO3
  CH4(g)         -129.98   -132.78   -2.80  CH4
  CO2(g)           -6.18     -7.64   -1.47  CO2
  H2(g)           -37.43    -40.53   -3.10  H2
  H2O(g)           -1.50     -0.00    1.50  H2O
  O2(g)            -8.42    -11.32   -2.89  O2

**For a gas, SI = log10(fugacity). Fugacity = pressure * phi / 1 atm.
  For ideal gases, phi = 1.

Reaction step 10.

Using solution 1.	
Using kinetics 1.	

Kinetics 1.	

	Time step: 9.46728e+07 seconds  (Incremented time: 9.46728e+08 seconds)

	Rate name       Delta Moles Total Moles   Reactant        Coefficient

	Calcite          -4.242e-06   9.497e-04   CaCO3                     1

-----------------------------Solution composition------------------------------

	Elements           Molality       Moles

	C                 5.033e-05   5.033e-05
	Ca                5.033e-05   5.033e-05

----------------------------Description of solution----------------------------

                                       pH  =   9.607      Charge balance
                                       pe  =   9.085      Adjusted to redox equilibrium
      Specific Conductance (µS/cm,  25°C)  = 16
                          Density (g/cm³)  =   0.99705
                               Volume (L)  =   1.00296
                        Activity of water  =   1.000
                 Ionic strength (mol/kgw)  =   1.572e-04
                       Mass of water (kg)  =   1.000e+00
                 Total alkalinity (eq/kg)  =   1.007e-04
                       Total CO2 (mol/kg)  =   5.033e-05
                         Temperature (°C)  =  25.00
                  Electrical balance (eq)  =  -1.217e-09
 Percent error, 100*(Cat-|An|)/(Cat+|An|)  =  -0.00
                               Iterations  =  18
                                  Total H  = 1.110124e+02
                                  Total O  = 5.550637e+01

----------------------------Distribution of species----------------------------

                                               Log       Log       Log    mole V
   Species          Molality    Activity  Molality  Activity     Gamma   cm³/mol

   OH-             4.150e-05   4.091e-05    -4.382    -4.388    -0.006     -4.13
   H+              2.510e-10   2.474e-10    -9.600    -9.607    -0.006      0.00
   H2O             5.551e+01   1.000e+00     1.744    -0.000     0.000     18.07
C(-4)         0.000e+00
   CH4             0.000e+00   0.000e+00  -132.783  -132.783     0.000     35.46
C(4)          5.033e-05
   HCO3-           4.146e-05   4.087e-05    -4.382    -4.389    -0.006     24.66
   CO3-2           8.206e-06   7.746e-06    -5.086    -5.111    -0.025     -5.34
   CaCO3           6.100e-07   6.100e-07    -6.215    -6.215     0.000    -14.60
   CaHCO3+         2.480e-08   2.444e-08    -7.606    -7.612    -0.006      9.66
   CO2             2.274e-08   2.274e-08    -7.643    -7.643     0.000     34.43
   (CO2)2          9.489e-18   9.490e-18   -17.023   -17.023     0.000     68.87
Ca            5.033e-05
   Ca+2            4.966e-05   4.688e-05    -4.304    -4.329    -0.025    -18.21
   CaCO3           6.100e-07   6.100e-07    -6.215    -6.215     0.000    -14.60
   CaOH+           3.190e-08   3.144e-08    -7.496    -7.502    -0.006     (0)  
   CaHCO3+         2.480e-08   2.444e-08    -7.606    -7.612    -0.006      9.66
H(0)          0.000e+00
   H2              0.000e+00   0.000e+00   -40.533   -40.533     0.000     28.61
O(0)          9.683e-12
   O2              4.842e-12   4.842e-12   -11.315   -11.315     0.000     30.40

------------------------------Saturation indices-------------------------------

  Phase               SI** log IAP   log K(298 K,   1 atm)

  Aragonite        -1.10     -9.44   -8.34  CaCO3
  Calcite          -0.96     -9.44   -8.48  CaCO3
  CH4(g)         -129.98   -132.78   -2.80  CH4
  CO2(g)           -6.18     -7.64   -1.47  CO2
  H2(g)           -37.43    -40.53   -3.10  H2
  H2O(g)           -1.50     -0.00    1.50  H2O
  O2(g)            -8.42    -11.31   -2.89  O2

**For a gas, SI = log10(fugacity). Fugacity = pressure * phi / 1 atm.
  For ideal gases, phi = 1.

Reaction step 11.

Using solution 1.	
Using kinetics 1.	

Kinetics 1.	

	Time step: 9.46728e+07 seconds  (Incremented time: 1.0414e+09 seconds)

	Rate name       Delta Moles Total Moles   Reactant        Coefficient

	Calcite          -4.048e-06   9.456e-04   CaCO3                     1

-----------------------------Solution composition------------------------------

	Elements           Molality       Moles

	C                 5.437e-05   5.437e-05
	Ca                5.437e-05   5.437e-05

----------------------------Description of solution----------------------------

                                       pH  =   9.634      Charge balance
                                       pe  =   9.057      Adjusted to redox equilibrium
      Specific Conductance (µS/cm,  25°C)  = 18
                          Density (g/cm³)  =   0.99705
                               Volume (L)  =   1.00296
                        Activity of water  =   1.000
                 Ionic strength (mol/kgw)  =   1.701e-04
                       Mass of water (kg)  =   1.000e+00
                 Total alkalinity (eq/kg)  =   1.088e-04
                       Total CO2 (mol/kg)  =   5.437e-05
                         Temperature (°C)  =  25.00
                  Electrical balance (eq)  =  -1.217e-09
 Percent error, 100*(Cat-|An|)/(Cat+|An|)  =  -0.00
                               Iterations  =  18
                                  Total H  = 1.110124e+02
                                  Total O  = 5.550638e+01

----------------------------Distribution of species----------------------------

                                               Log       Log       Log    mole V
   Species          Molality    Activity  Molality  Activity     Gamma   cm³/mol

   OH-             4.427e-05   4.361e-05    -4.354    -4.360    -0.007     -4.13
   H+              2.356e-10   2.321e-10    -9.628    -9.634    -0.006      0.00
   H2O             5.551e+01   1.000e+00     1.744    -0.000     0.000     18.07
C(-4)         0.000e+00
   CH4             0.000e+00   0.000e+00  -132.784  -132.784     0.000     35.46
C(4)          5.437e-05
   HCO3-           4.423e-05   4.357e-05    -4.354    -4.361    -0.007     24.66
   CO3-2           9.347e-06   8.804e-06    -5.029    -5.055    -0.026     -5.34
   CaCO3           7.461e-07   7.461e-07    -6.127    -6.127     0.000    -14.60
   CaHCO3+         2.847e-08   2.805e-08    -7.546    -7.552    -0.006      9.66
   CO2             2.274e-08   2.274e-08    -7.643    -7.643     0.000     34.43
   (CO2)2          9.491e-18   9.491e-18   -17.023   -17.023     0.000     68.87
Ca            5.437e-05
   Ca+2            5.356e-05   5.045e-05    -4.271    -4.297    -0.026    -18.21
   CaCO3           7.461e-07   7.461e-07    -6.127    -6.127     0.000    -14.60
   CaOH+           3.662e-08   3.607e-08    -7.436    -7.443    -0.007     (0)  
   CaHCO3+         2.847e-08   2.805e-08    -7.546    -7.552    -0.006      9.66
H(0)          0.000e+00
   H2              0.000e+00   0.000e+00   -40.533   -40.533     0.000     28.61
O(0)          9.697e-12
   O2              4.848e-12   4.849e-12   -11.314   -11.314     0.000     30.40

------------------------------Saturation indices-------------------------------

  Phase               SI** log IAP   log K(298 K,   1 atm)

  Aragonite        -1.02     -9.35   -8.34  CaCO3
  Calcite          -0.87     -9.35   -8.48  CaCO3
  CH4(g)         -129.98   -132.78   -2.80  CH4
  CO2(g)           -6.18     -7.64   -1.47  CO2
  H2(g)           -37.43    -40.53   -3.10  H2
  H2O(g)           -1.50     -0.00    1.50  H2O
  O2(g)            -8.42    -11.31   -2.89  O2

**For a gas, SI = log10(fugacity). Fugacity = pressure * phi / 1 atm.
  For ideal gases, phi = 1.

Reaction step 12.

Using solution 1.	
Using kinetics 1.	

Kinetics 1.	

	Time step: 9.46728e+07 seconds  (Incremented time: 1.13607e+09 seconds)

	Rate name       Delta Moles Total Moles   Reactant        Coefficient

	Calcite          -3.855e-06   9.418e-04   CaCO3                     1

-----------------------------Solution composition------------------------------

	Elements           Molality       Moles

	C                 5.823e-05   5.823e-05
	Ca                5.823e-05   5.823e-05

----------------------------Description of solution----------------------------

                                       pH  =   9.659      Charge balance
                                       pe  =   9.033      Adjusted to redox equilibrium
      Specific Conductance (µS/cm,  25°C)  = 19
                          Density (g/cm³)  =   0.99705
                               Volume (L)  =   1.00296
                        Activity of water  =   1.000
                 Ionic strength (mol/kgw)  =   1.823e-04
                       Mass of water (kg)  =   1.000e+00
                 Total alkalinity (eq/kg)  =   1.165e-04
                       Total CO2 (mol/kg)  =   5.823e-05
                         Temperature (°C)  =  25.00
                  Electrical balance (eq)  =  -1.217e-09
 Percent error, 100*(Cat-|An|)/(Cat+|An|)  =  -0.00
                               Iterations  =  17
                                  Total H  = 1.110124e+02
                                  Total O  = 5.550639e+01

----------------------------Distribution of species----------------------------

                                               Log       Log       Log    mole V
   Species          Molality    Activity  Molality  Activity     Gamma   cm³/mol

   OH-             4.684e-05   4.612e-05    -4.329    -4.336    -0.007     -4.13
   H+              2.228e-10   2.195e-10    -9.652    -9.659    -0.007      0.00
   H2O             5.551e+01   1.000e+00     1.744    -0.000     0.000     18.07
C(-4)         0.000e+00
   CH4             0.000e+00   0.000e+00  -132.784  -132.784     0.000     35.46
C(4)          5.823e-05
   HCO3-           4.681e-05   4.609e-05    -4.330    -4.336    -0.007     24.66
   CO3-2           1.048e-05   9.848e-06    -4.980    -5.007    -0.027     -5.34
   CaCO3           8.904e-07   8.905e-07    -6.050    -6.050     0.000    -14.60
   CaHCO3+         3.214e-08   3.165e-08    -7.493    -7.500    -0.007      9.66
   CO2             2.274e-08   2.274e-08    -7.643    -7.643     0.000     34.43
   (CO2)2          9.492e-18   9.493e-18   -17.023   -17.023     0.000     68.87
Ca            5.823e-05
   Ca+2            5.727e-05   5.382e-05    -4.242    -4.269    -0.027    -18.21
   CaCO3           8.904e-07   8.905e-07    -6.050    -6.050     0.000    -14.60
   CaOH+           4.134e-08   4.070e-08    -7.384    -7.390    -0.007     (0)  
   CaHCO3+         3.214e-08   3.165e-08    -7.493    -7.500    -0.007      9.66
H(0)          0.000e+00
   H2              0.000e+00   0.000e+00   -40.533   -40.533     0.000     28.61
O(0)          9.699e-12
   O2              4.850e-12   4.850e-12   -11.314   -11.314     0.000     30.40

------------------------------Saturation indices-------------------------------

  Phase               SI** log IAP   log K(298 K,   1 atm)

  Aragonite        -0.94     -9.28   -8.34  CaCO3
  Calcite          -0.80     -9.28   -8.48  CaCO3
  CH4(g)         -129.98   -132.78   -2.80  CH4
  CO2(g)           -6.18     -7.64   -1.47  CO2
  H2(g)           -37.43    -40.53   -3.10  H2
  H2O(g)           -1.50     -0.00    1.50  H2O
  O2(g)            -8.42    -11.31   -2.89  O2

**For a gas, SI = log10(fugacity). Fugacity = pressure * phi / 1 atm.
  For ideal gases, phi = 1.

Reaction step 13.

Using solution 1.	
Using kinetics 1.	

Kinetics 1.	

	Time step: 9.46728e+07 seconds  (Incremented time: 1.23075e+09 seconds)

	Rate name       Delta Moles Total Moles   Reactant        Coefficient

	Calcite          -3.666e-06   9.381e-04   CaCO3                     1

-----------------------------Solution composition------------------------------

	Elements           Molality       Moles

	C                 6.190e-05   6.190e-05
	Ca                6.190e-05   6.190e-05

----------------------------Description of solution----------------------------

                                       pH  =   9.680      Charge balance
                                       pe  =   9.011      Adjusted to redox equilibrium
      Specific Conductance (µS/cm,  25°C)  = 20
                          Density (g/cm³)  =   0.99705
                               Volume (L)  =   1.00296
                        Activity of water  =   1.000
                 Ionic strength (mol/kgw)  =   1.940e-04
                       Mass of water (kg)  =   1.000e+00
                 Total alkalinity (eq/kg)  =   1.238e-04
                       Total CO2 (mol/kg)  =   6.190e-05
                         Temperature (°C)  =  25.00
                  Electrical balance (eq)  =  -1.217e-09
 Percent error, 100*(Cat-|An|)/(Cat+|An|)  =  -0.00
                               Iterations  =  17
                                  Total H  = 1.110124e+02
                                  Total O  = 5.550640e+01

----------------------------Distribution of species----------------------------

                                               Log       Log       Log    mole V
   Species          Molality    Activity  Molality  Activity     Gamma   cm³/mol

   OH-             4.924e-05   4.846e-05    -4.308    -4.315    -0.007     -4.12
   H+              2.122e-10   2.089e-10    -9.673    -9.680    -0.007      0.00
   H2O             5.551e+01   1.000e+00     1.744    -0.000     0.000     18.07
C(-4)         0.000e+00
   CH4             0.000e+00   0.000e+00  -132.784  -132.784     0.000     35.46
C(4)          6.190e-05
   HCO3-           4.921e-05   4.843e-05    -4.308    -4.315    -0.007     24.66
   CO3-2           1.159e-05   1.087e-05    -4.936    -4.964    -0.028     -5.34
   CaCO3           1.041e-06   1.041e-06    -5.982    -5.982     0.000    -14.60
   CaHCO3+         3.579e-08   3.522e-08    -7.446    -7.453    -0.007      9.66
   CO2             2.274e-08   2.274e-08    -7.643    -7.643     0.000     34.43
   (CO2)2          9.494e-18   9.494e-18   -17.023   -17.023     0.000     68.87
Ca            6.190e-05
   Ca+2            6.077e-05   5.701e-05    -4.216    -4.244    -0.028    -18.20
   CaCO3           1.041e-06   1.041e-06    -5.982    -5.982     0.000    -14.60
   CaOH+           4.603e-08   4.530e-08    -7.337    -7.344    -0.007     (0)  
   CaHCO3+         3.579e-08   3.522e-08    -7.446    -7.453    -0.007      9.66
H(0)          0.000e+00
   H2              0.000e+00   0.000e+00   -40.533   -40.533     0.000     28.61
O(0)          9.691e-12
   O2              4.845e-12   4.846e-12   -11.315   -11.315     0.000     30.40

------------------------------Saturation indices-------------------------------

  Phase               SI** log IAP   log K(298 K,   1 atm)

  Aragonite        -0.87     -9.21   -8.34  CaCO3
  Calcite          -0.73     -9.21   -8.48  CaCO3
  CH4(g)         -129.98   -132.78   -2.80  CH4
  CO2(g)           -6.17     -7.64   -1.47  CO2
  H2(g)           -37.43    -40.53   -3.10  H2
  H2O(g)           -1.50     -0.00    1.50  H2O
  O2(g)            -8.42    -11.31   -2.89  O2

**For a gas, SI = log10(fugacity). Fugacity = pressure * phi / 1 atm.
  For ideal gases, phi = 1.

Reaction step 14.

Using solution 1.	
Using kinetics 1.	

Kinetics 1.	

	Time step: 9.46728e+07 seconds  (Incremented time: 1.32542e+09 seconds)

	Rate name       Delta Moles Total Moles   Reactant        Coefficient

	Calcite          -3.482e-06   9.346e-04   CaCO3                     1

-----------------------------Solution composition------------------------------

	Elements           Molality       Moles

	C                 6.538e-05   6.538e-05
	Ca                6.538e-05   6.538e-05

----------------------------Description of solution----------------------------

                                       pH  =   9.699      Charge balance
                                       pe  =   8.992      Adjusted to redox equilibrium
      Specific Conductance (µS/cm,  25°C)  = 21
                          Density (g/cm³)  =   0.99705
                               Volume (L)  =   1.00296
                        Activity of water  =   1.000
                 Ionic strength (mol/kgw)  =   2.050e-04
                       Mass of water (kg)  =   1.000e+00
                 Total alkalinity (eq/kg)  =   1.308e-04
                       Total CO2 (mol/kg)  =   6.538e-05
                         Temperature (°C)  =  25.00
                  Electrical balance (eq)  =  -1.217e-09
 Percent error, 100*(Cat-|An|)/(Cat+|An|)  =  -0.00
                               Iterations  =  17
                                  Total H  = 1.110124e+02
                                  Total O  = 5.550641e+01

----------------------------Distribution of species----------------------------

                                               Log       Log       Log    mole V
   Species          Molality    Activity  Molality  Activity     Gamma   cm³/mol

   OH-             5.148e-05   5.063e-05    -4.288    -4.296    -0.007     -4.12
   H+              2.032e-10   1.999e-10    -9.692    -9.699    -0.007      0.00
   H2O             5.551e+01   1.000e+00     1.744    -0.000     0.000     18.07
C(-4)         0.000e+00
   CH4             0.000e+00   0.000e+00  -132.784  -132.784     0.000     35.46
C(4)          6.538e-05
   HCO3-           5.144e-05   5.061e-05    -4.289    -4.296    -0.007     24.67
   CO3-2           1.268e-05   1.187e-05    -4.897    -4.925    -0.028     -5.34
   CaCO3           1.197e-06   1.197e-06    -5.922    -5.922     0.000    -14.60
   CaHCO3+         3.939e-08   3.875e-08    -7.405    -7.412    -0.007      9.66
   CO2             2.274e-08   2.274e-08    -7.643    -7.643     0.000     34.43
   (CO2)2          9.495e-18   9.495e-18   -17.023   -17.022     0.000     68.87
Ca            6.538e-05
   Ca+2            6.409e-05   6.002e-05    -4.193    -4.222    -0.029    -18.20
   CaCO3           1.197e-06   1.197e-06    -5.922    -5.922     0.000    -14.60
   CaOH+           5.066e-08   4.983e-08    -7.295    -7.303    -0.007     (0)  
   CaHCO3+         3.939e-08   3.875e-08    -7.405    -7.412    -0.007      9.66
H(0)          0.000e+00
   H2              0.000e+00   0.000e+00   -40.533   -40.533     0.000     28.61
O(0)          9.695e-12
   O2              4.848e-12   4.848e-12   -11.314   -11.314     0.000     30.40

------------------------------Saturation indices-------------------------------

  Phase               SI** log IAP   log K(298 K,   1 atm)

  Aragonite        -0.81     -9.15   -8.34  CaCO3
  Calcite          -0.67     -9.15   -8.48  CaCO3
  CH4(g)         -129.98   -132.78   -2.80  CH4
  CO2(g)           -6.17     -7.64   -1.47  CO2
  H2(g)           -37.43    -40.53   -3.10  H2
  H2O(g)           -1.50     -0.00    1.50  H2O
  O2(g)            -8.42    -11.31   -2.89  O2

**For a gas, SI = log10(fugacity). Fugacity = pressure * phi / 1 atm.
  For ideal gases, phi = 1.

Reaction step 15.

Using solution 1.	
Using kinetics 1.	

Kinetics 1.	

	Time step: 9.46728e+07 seconds  (Incremented time: 1.42009e+09 seconds)

	Rate name       Delta Moles Total Moles   Reactant        Coefficient

	Calcite          -3.303e-06   9.313e-04   CaCO3                     1

-----------------------------Solution composition------------------------------

	Elements           Molality       Moles

	C                 6.868e-05   6.868e-05
	Ca                6.868e-05   6.868e-05

----------------------------Description of solution----------------------------

                                       pH  =   9.716      Charge balance
                                       pe  =   8.975      Adjusted to redox equilibrium
      Specific Conductance (µS/cm,  25°C)  = 22
                          Density (g/cm³)  =   0.99705
                               Volume (L)  =   1.00296
                        Activity of water  =   1.000
                 Ionic strength (mol/kgw)  =   2.155e-04
                       Mass of water (kg)  =   1.000e+00
                 Total alkalinity (eq/kg)  =   1.374e-04
                       Total CO2 (mol/kg)  =   6.868e-05
                         Temperature (°C)  =  25.00
                  Electrical balance (eq)  =  -1.217e-09
 Percent error, 100*(Cat-|An|)/(Cat+|An|)  =  -0.00
                               Iterations  =  17
                                  Total H  = 1.110124e+02
                                  Total O  = 5.550642e+01

----------------------------Distribution of species----------------------------

                                               Log       Log       Log    mole V
   Species          Molality    Activity  Molality  Activity     Gamma   cm³/mol

   OH-             5.356e-05   5.266e-05    -4.271    -4.279    -0.007     -4.12
   H+              1.954e-10   1.922e-10    -9.709    -9.716    -0.007      0.00
   H2O             5.551e+01   1.000e+00     1.744    -0.000     0.000     18.07
C(-4)         0.000e+00
   CH4             0.000e+00   0.000e+00  -132.783  -132.783     0.000     35.46
C(4)          6.868e-05
   HCO3-           5.352e-05   5.263e-05    -4.271    -4.279    -0.007     24.67
   CO3-2           1.373e-05   1.284e-05    -4.862    -4.891    -0.029     -5.34
   CaCO3           1.356e-06   1.356e-06    -5.868    -5.868     0.000    -14.60
   CaHCO3+         4.292e-08   4.221e-08    -7.367    -7.375    -0.007      9.66
   CO2             2.274e-08   2.275e-08    -7.643    -7.643     0.000     34.43
   (CO2)2          9.496e-18   9.496e-18   -17.022   -17.022     0.000     68.87
Ca            6.868e-05
   Ca+2            6.723e-05   6.285e-05    -4.172    -4.202    -0.029    -18.20
   CaCO3           1.356e-06   1.356e-06    -5.868    -5.868     0.000    -14.60
   CaOH+           5.520e-08   5.427e-08    -7.258    -7.265    -0.007     (0)  
   CaHCO3+         4.292e-08   4.221e-08    -7.367    -7.375    -0.007      9.66
H(0)          0.000e+00
   H2              0.000e+00   0.000e+00   -40.533   -40.533     0.000     28.61
O(0)          9.690e-12
   O2              4.845e-12   4.845e-12   -11.315   -11.315     0.000     30.40

------------------------------Saturation indices-------------------------------

  Phase               SI** log IAP   log K(298 K,   1 atm)

  Aragonite        -0.76     -9.09   -8.34  CaCO3
  Calcite          -0.61     -9.09   -8.48  CaCO3
  CH4(g)         -129.98   -132.78   -2.80  CH4
  CO2(g)           -6.17     -7.64   -1.47  CO2
  H2(g)           -37.43    -40.53   -3.10  H2
  H2O(g)           -1.50     -0.00    1.50  H2O
  O2(g)            -8.42    -11.31   -2.89  O2

**For a gas, SI = log10(fugacity). Fugacity = pressure * phi / 1 atm.
  For ideal gases, phi = 1.

Reaction step 16.

Using solution 1.	
Using kinetics 1.	

Kinetics 1.	

	Time step: 9.46728e+07 seconds  (Incremented time: 1.51476e+09 seconds)

	Rate name       Delta Moles Total Moles   Reactant        Coefficient

	Calcite          -3.130e-06   9.282e-04   CaCO3                     1

-----------------------------Solution composition------------------------------

	Elements           Molality       Moles

	C                 7.181e-05   7.181e-05
	Ca                7.181e-05   7.181e-05

----------------------------Description of solution----------------------------

                                       pH  =   9.732      Charge balance
                                       pe  =   8.960      Adjusted to redox equilibrium
      Specific Conductance (µS/cm,  25°C)  = 23
                          Density (g/cm³)  =   0.99705
                               Volume (L)  =   1.00296
                        Activity of water  =   1.000
                 Ionic strength (mol/kgw)  =   2.254e-04
                       Mass of water (kg)  =   1.000e+00
                 Total alkalinity (eq/kg)  =   1.436e-04
                       Total CO2 (mol/kg)  =   7.181e-05
                         Temperature (°C)  =  25.00
                  Electrical balance (eq)  =  -1.217e-09
 Percent error, 100*(Cat-|An|)/(Cat+|An|)  =  -0.00
                               Iterations  =  16
                                  Total H  = 1.110124e+02
                                  Total O  = 5.550643e+01

----------------------------Distribution of species----------------------------

                                               Log       Log       Log    mole V
   Species          Molality    Activity  Molality  Activity     Gamma   cm³/mol

   OH-             5.550e-05   5.455e-05    -4.256    -4.263    -0.008     -4.12
   H+              1.887e-10   1.856e-10    -9.724    -9.732    -0.007      0.00
   H2O             5.551e+01   1.000e+00     1.744    -0.000     0.000     18.07
C(-4)         0.000e+00
   CH4             0.000e+00   0.000e+00  -132.783  -132.783     0.000     35.46
C(4)          7.181e-05
   HCO3-           5.547e-05   5.452e-05    -4.256    -4.263    -0.007     24.67
   CO3-2           1.476e-05   1.378e-05    -4.831    -4.861    -0.030     -5.34
   CaCO3           1.517e-06   1.517e-06    -5.819    -5.819     0.000    -14.60
   CaHCO3+         4.637e-08   4.558e-08    -7.334    -7.341    -0.007      9.66
   CO2             2.275e-08   2.275e-08    -7.643    -7.643     0.000     34.43
   (CO2)2          9.497e-18   9.497e-18   -17.022   -17.022     0.000     68.87
Ca            7.181e-05
   Ca+2            7.019e-05   6.552e-05    -4.154    -4.184    -0.030    -18.20
   CaCO3           1.517e-06   1.517e-06    -5.819    -5.819     0.000    -14.60
   CaOH+           5.962e-08   5.860e-08    -7.225    -7.232    -0.008     (0)  
   CaHCO3+         4.637e-08   4.558e-08    -7.334    -7.341    -0.007      9.66
H(0)          0.000e+00
   H2              0.000e+00   0.000e+00   -40.533   -40.533     0.000     28.61
O(0)          9.687e-12
   O2              4.843e-12   4.844e-12   -11.315   -11.315     0.000     30.40

------------------------------Saturation indices-------------------------------

  Phase               SI** log IAP   log K(298 K,   1 atm)

  Aragonite        -0.71     -9.04   -8.34  CaCO3
  Calcite          -0.56     -9.04   -8.48  CaCO3
  CH4(g)         -129.98   -132.78   -2.80  CH4
  CO2(g)           -6.17     -7.64   -1.47  CO2
  H2(g)           -37.43    -40.53   -3.10  H2
  H2O(g)           -1.50     -0.00    1.50  H2O
  O2(g)            -8.42    -11.31   -2.89  O2

**For a gas, SI = log10(fugacity). Fugacity = pressure * phi / 1 atm.
  For ideal gases, phi = 1.

Reaction step 17.

Using solution 1.	
Using kinetics 1.	

Kinetics 1.	

	Time step: 9.46728e+07 seconds  (Incremented time: 1.60944e+09 seconds)

	Rate name       Delta Moles Total Moles   Reactant        Coefficient

	Calcite          -2.963e-06   9.252e-04   CaCO3                     1

-----------------------------Solution composition------------------------------

	Elements           Molality       Moles

	C                 7.477e-05   7.477e-05
	Ca                7.477e-05   7.477e-05

----------------------------Description of solution----------------------------

                                       pH  =   9.745      Charge balance
                                       pe  =   8.946      Adjusted to redox equilibrium
      Specific Conductance (µS/cm,  25°C)  = 24
                          Density (g/cm³)  =   0.99705
                               Volume (L)  =   1.00296
                        Activity of water  =   1.000
                 Ionic strength (mol/kgw)  =   2.348e-04
                       Mass of water (kg)  =   1.000e+00
                 Total alkalinity (eq/kg)  =   1.495e-04
                       Total CO2 (mol/kg)  =   7.477e-05
                         Temperature (°C)  =  25.00
                  Electrical balance (eq)  =  -1.217e-09
 Percent error, 100*(Cat-|An|)/(Cat+|An|)  =  -0.00
                               Iterations  =  16
                                  Total H  = 1.110124e+02
                                  Total O  = 5.550644e+01

----------------------------Distribution of species----------------------------

                                               Log       Log       Log    mole V
   Species          Molality    Activity  Molality  Activity     Gamma   cm³/mol

   OH-             5.731e-05   5.630e-05    -4.242    -4.249    -0.008     -4.12
   H+              1.829e-10   1.798e-10    -9.738    -9.745    -0.007      0.00
   H2O             5.551e+01   1.000e+00     1.744    -0.000     0.000     18.07
C(-4)         0.000e+00
   CH4             0.000e+00   0.000e+00  -132.782  -132.782     0.000     35.46
C(4)          7.477e-05
   HCO3-           5.728e-05   5.628e-05    -4.242    -4.250    -0.008     24.67
   CO3-2           1.575e-05   1.468e-05    -4.803    -4.833    -0.030     -5.33
   CaCO3           1.678e-06   1.678e-06    -5.775    -5.775     0.000    -14.60
   CaHCO3+         4.972e-08   4.886e-08    -7.303    -7.311    -0.008      9.66
   CO2             2.275e-08   2.275e-08    -7.643    -7.643     0.000     34.43
   (CO2)2          9.497e-18   9.498e-18   -17.022   -17.022     0.000     68.87
Ca            7.477e-05
   Ca+2            7.298e-05   6.804e-05    -4.137    -4.167    -0.030    -18.20
   CaCO3           1.678e-06   1.678e-06    -5.775    -5.775     0.000    -14.60
   CaOH+           6.393e-08   6.281e-08    -7.194    -7.202    -0.008     (0)  
   CaHCO3+         4.972e-08   4.886e-08    -7.303    -7.311    -0.008      9.66
H(0)          0.000e+00
   H2              0.000e+00   0.000e+00   -40.532   -40.532     0.000     28.61
O(0)          9.678e-12
   O2              4.839e-12   4.839e-12   -11.315   -11.315     0.000     30.40

------------------------------Saturation indices-------------------------------

  Phase               SI** log IAP   log K(298 K,   1 atm)

  Aragonite        -0.66     -9.00   -8.34  CaCO3
  Calcite          -0.52     -9.00   -8.48  CaCO3
  CH4(g)         -129.98   -132.78   -2.80  CH4
  CO2(g)           -6.17     -7.64   -1.47  CO2
  H2(g)           -37.43    -40.53   -3.10  H2
  H2O(g)           -1.50     -0.00    1.50  H2O
  O2(g)            -8.42    -11.32   -2.89  O2

**For a gas, SI = log10(fugacity). Fugacity = pressure * phi / 1 atm.
  For ideal gases, phi = 1.

Reaction step 18.

Using solution 1.	
Using kinetics 1.	

Kinetics 1.	

	Time step: 9.46728e+07 seconds  (Incremented time: 1.70411e+09 seconds)

	Rate name       Delta Moles Total Moles   Reactant        Coefficient

	Calcite          -2.803e-06   9.224e-04   CaCO3                     1

-----------------------------Solution composition------------------------------

	Elements           Molality       Moles

	C                 7.758e-05   7.758e-05
	Ca                7.758e-05   7.758e-05

----------------------------Description of solution----------------------------

                                       pH  =   9.758      Charge balance
                                       pe  =   8.934      Adjusted to redox equilibrium
      Specific Conductance (µS/cm,  25°C)  = 25
                          Density (g/cm³)  =   0.99705
                               Volume (L)  =   1.00296
                        Activity of water  =   1.000
                 Ionic strength (mol/kgw)  =   2.437e-04
                       Mass of water (kg)  =   1.000e+00
                 Total alkalinity (eq/kg)  =   1.552e-04
                       Total CO2 (mol/kg)  =   7.758e-05
                         Temperature (°C)  =  25.00
                  Electrical balance (eq)  =  -1.217e-09
 Percent error, 100*(Cat-|An|)/(Cat+|An|)  =  -0.00
                               Iterations  =  16
                                  Total H  = 1.110124e+02
                                  Total O  = 5.550645e+01

----------------------------Distribution of species----------------------------

                                               Log       Log       Log    mole V
   Species          Molality    Activity  Molality  Activity     Gamma   cm³/mol

   OH-             5.899e-05   5.794e-05    -4.229    -4.237    -0.008     -4.12
   H+              1.778e-10   1.747e-10    -9.750    -9.758    -0.008      0.00
   H2O             5.551e+01   1.000e+00     1.744    -0.000     0.000     18.07
C(-4)         0.000e+00
   CH4             0.000e+00   0.000e+00  -132.783  -132.783     0.000     35.46
C(4)          7.758e-05
   HCO3-           5.896e-05   5.792e-05    -4.229    -4.237    -0.008     24.67
   CO3-2           1.670e-05   1.555e-05    -4.777    -4.808    -0.031     -5.33
   CaCO3           1.839e-06   1.839e-06    -5.735    -5.735     0.000    -14.60
   CaHCO3+         5.296e-08   5.203e-08    -7.276    -7.284    -0.008      9.66
   CO2             2.275e-08   2.275e-08    -7.643    -7.643     0.000     34.43
   (CO2)2          9.498e-18   9.499e-18   -17.022   -17.022     0.000     68.87
Ca            7.758e-05
   Ca+2            7.562e-05   7.041e-05    -4.121    -4.152    -0.031    -18.20
   CaCO3           1.839e-06   1.839e-06    -5.735    -5.735     0.000    -14.60
   CaOH+           6.810e-08   6.689e-08    -7.167    -7.175    -0.008     (0)  
   CaHCO3+         5.296e-08   5.203e-08    -7.276    -7.284    -0.008      9.66
H(0)          0.000e+00
   H2              0.000e+00   0.000e+00   -40.533   -40.533     0.000     28.61
O(0)          9.685e-12
   O2              4.842e-12   4.843e-12   -11.315   -11.315     0.000     30.40

------------------------------Saturation indices-------------------------------

  Phase               SI** log IAP   log K(298 K,   1 atm)

  Aragonite        -0.62     -8.96   -8.34  CaCO3
  Calcite          -0.48     -8.96   -8.48  CaCO3
  CH4(g)         -129.98   -132.78   -2.80  CH4
  CO2(g)           -6.17     -7.64   -1.47  CO2
  H2(g)           -37.43    -40.53   -3.10  H2
  H2O(g)           -1.50     -0.00    1.50  H2O
  O2(g)            -8.42    -11.31   -2.89  O2

**For a gas, SI = log10(fugacity). Fugacity = pressure * phi / 1 atm.
  For ideal gases, phi = 1.

Reaction step 19.

Using solution 1.	
Using kinetics 1.	

Kinetics 1.	

	Time step: 9.46728e+07 seconds  (Incremented time: 1.79878e+09 seconds)

	Rate name       Delta Moles Total Moles   Reactant        Coefficient

	Calcite          -2.650e-06   9.198e-04   CaCO3                     1

-----------------------------Solution composition------------------------------

	Elements           Molality       Moles

	C                 8.023e-05   8.023e-05
	Ca                8.023e-05   8.023e-05

----------------------------Description of solution----------------------------

                                       pH  =   9.769      Charge balance
                                       pe  =   8.922      Adjusted to redox equilibrium
      Specific Conductance (µS/cm,  25°C)  = 25
                          Density (g/cm³)  =   0.99705
                               Volume (L)  =   1.00296
                        Activity of water  =   1.000
                 Ionic strength (mol/kgw)  =   2.520e-04
                       Mass of water (kg)  =   1.000e+00
                 Total alkalinity (eq/kg)  =   1.605e-04
                       Total CO2 (mol/kg)  =   8.023e-05
                         Temperature (°C)  =  25.00
                  Electrical balance (eq)  =  -1.217e-09
 Percent error, 100*(Cat-|An|)/(Cat+|An|)  =  -0.00
                               Iterations  =  16
                                  Total H  = 1.110124e+02
                                  Total O  = 5.550646e+01

----------------------------Distribution of species----------------------------

                                               Log       Log       Log    mole V
   Species          Molality    Activity  Molality  Activity     Gamma   cm³/mol

   OH-             6.057e-05   5.947e-05    -4.218    -4.226    -0.008     -4.12
   H+              1.733e-10   1.702e-10    -9.761    -9.769    -0.008      0.00
   H2O             5.551e+01   1.000e+00     1.744    -0.000     0.000     18.07
C(-4)         0.000e+00
   CH4             0.000e+00   0.000e+00  -132.783  -132.783     0.000     35.46
C(4)          8.023e-05
   HCO3-           6.054e-05   5.945e-05    -4.218    -4.226    -0.008     24.67
   CO3-2           1.761e-05   1.638e-05    -4.754    -4.786    -0.032     -5.33
   CaCO3           1.999e-06   1.999e-06    -5.699    -5.699     0.000    -14.60
   CaHCO3+         5.609e-08   5.509e-08    -7.251    -7.259    -0.008      9.66
   CO2             2.275e-08   2.275e-08    -7.643    -7.643     0.000     34.43
   (CO2)2          9.499e-18   9.499e-18   -17.022   -17.022     0.000     68.87
Ca            8.023e-05
   Ca+2            7.810e-05   7.263e-05    -4.107    -4.139    -0.032    -18.20
   CaCO3           1.999e-06   1.999e-06    -5.699    -5.699     0.000    -14.60
   CaOH+           7.213e-08   7.082e-08    -7.142    -7.150    -0.008     (0)  
   CaHCO3+         5.609e-08   5.509e-08    -7.251    -7.259    -0.008      9.66
H(0)          0.000e+00
   H2              0.000e+00   0.000e+00   -40.532   -40.532     0.000     28.61
O(0)          9.681e-12
   O2              4.841e-12   4.841e-12   -11.315   -11.315     0.000     30.40

------------------------------Saturation indices-------------------------------

  Phase               SI** log IAP   log K(298 K,   1 atm)

  Aragonite        -0.59     -8.92   -8.34  CaCO3
  Calcite          -0.44     -8.92   -8.48  CaCO3
  CH4(g)         -129.98   -132.78   -2.80  CH4
  CO2(g)           -6.17     -7.64   -1.47  CO2
  H2(g)           -37.43    -40.53   -3.10  H2
  H2O(g)           -1.50     -0.00    1.50  H2O
  O2(g)            -8.42    -11.32   -2.89  O2

**For a gas, SI = log10(fugacity). Fugacity = pressure * phi / 1 atm.
  For ideal gases, phi = 1.

Reaction step 20.

Using solution 1.	
Using kinetics 1.	

Kinetics 1.	

	Time step: 9.46728e+07 seconds  (Incremented time: 1.89346e+09 seconds)

	Rate name       Delta Moles Total Moles   Reactant        Coefficient

	Calcite          -2.504e-06   9.173e-04   CaCO3                     1

-----------------------------Solution composition------------------------------

	Elements           Molality       Moles

	C                 8.273e-05   8.273e-05
	Ca                8.273e-05   8.273e-05

----------------------------Description of solution----------------------------

                                       pH  =   9.779      Charge balance
                                       pe  =   8.912      Adjusted to redox equilibrium
      Specific Conductance (µS/cm,  25°C)  = 26
                          Density (g/cm³)  =   0.99705
                               Volume (L)  =   1.00296
                        Activity of water  =   1.000
                 Ionic strength (mol/kgw)  =   2.599e-04
                       Mass of water (kg)  =   1.000e+00
                 Total alkalinity (eq/kg)  =   1.655e-04
                       Total CO2 (mol/kg)  =   8.273e-05
                         Temperature (°C)  =  25.00
                  Electrical balance (eq)  =  -1.217e-09
 Percent error, 100*(Cat-|An|)/(Cat+|An|)  =  -0.00
                               Iterations  =  16
                                  Total H  = 1.110124e+02
                                  Total O  = 5.550646e+01

----------------------------Distribution of species----------------------------

                                               Log       Log       Log    mole V
   Species          Molality    Activity  Molality  Activity     Gamma   cm³/mol

   OH-             6.204e-05   6.089e-05    -4.207    -4.215    -0.008     -4.12
   H+              1.692e-10   1.662e-10    -9.771    -9.779    -0.008      0.00
   H2O             5.551e+01   1.000e+00     1.744    -0.000     0.000     18.07
C(-4)         0.000e+00
   CH4             0.000e+00   0.000e+00  -132.783  -132.783     0.000     35.46
C(4)          8.273e-05
   HCO3-           6.201e-05   6.087e-05    -4.208    -4.216    -0.008     24.67
   CO3-2           1.849e-05   1.718e-05    -4.733    -4.765    -0.032     -5.33
   CaCO3           2.156e-06   2.156e-06    -5.666    -5.666     0.000    -14.60
   CaHCO3+         5.911e-08   5.804e-08    -7.228    -7.236    -0.008      9.66
   CO2             2.275e-08   2.275e-08    -7.643    -7.643     0.000     34.43
   (CO2)2          9.499e-18   9.500e-18   -17.022   -17.022     0.000     68.87
Ca            8.273e-05
   Ca+2            8.044e-05   7.473e-05    -4.095    -4.127    -0.032    -18.20
   CaCO3           2.156e-06   2.156e-06    -5.666    -5.666     0.000    -14.60
   CaOH+           7.601e-08   7.461e-08    -7.119    -7.127    -0.008     (0)  
   CaHCO3+         5.911e-08   5.804e-08    -7.228    -7.236    -0.008      9.66
H(0)          0.000e+00
   H2              0.000e+00   0.000e+00   -40.533   -40.532     0.000     28.61
O(0)          9.683e-12
   O2              4.841e-12   4.842e-12   -11.315   -11.315     0.000     30.40

------------------------------Saturation indices-------------------------------

  Phase               SI** log IAP   log K(298 K,   1 atm)

  Aragonite        -0.56     -8.89   -8.34  CaCO3
  Calcite          -0.41     -8.89   -8.48  CaCO3
  CH4(g)         -129.98   -132.78   -2.80  CH4
  CO2(g)           -6.17     -7.64   -1.47  CO2
  H2(g)           -37.43    -40.53   -3.10  H2
  H2O(g)           -1.50     -0.00    1.50  H2O
  O2(g)            -8.42    -11.32   -2.89  O2

**For a gas, SI = log10(fugacity). Fugacity = pressure * phi / 1 atm.
  For ideal gases, phi = 1.

Reaction step 21.

Using solution 1.	
Using kinetics 1.	

Kinetics 1.	

	Time step: 9.46728e+07 seconds  (Incremented time: 1.98813e+09 seconds)

	Rate name       Delta Moles Total Moles   Reactant        Coefficient

	Calcite          -2.364e-06   9.149e-04   CaCO3                     1

-----------------------------Solution composition------------------------------

	Elements           Molality       Moles

	C                 8.510e-05   8.510e-05
	Ca                8.510e-05   8.510e-05

----------------------------Description of solution----------------------------

                                       pH  =   9.789      Charge balance
                                       pe  =   8.903      Adjusted to redox equilibrium
      Specific Conductance (µS/cm,  25°C)  = 27
                          Density (g/cm³)  =   0.99705
                               Volume (L)  =   1.00296
                        Activity of water  =   1.000
                 Ionic strength (mol/kgw)  =   2.674e-04
[...]
   CaOH+           1.461e-07   1.429e-07    -6.835    -6.845    -0.010     (0)  
   CaHCO3+         1.137e-07   1.112e-07    -6.944    -6.954    -0.010      9.66
H(0)          0.000e+00
   H2              0.000e+00   0.000e+00   -40.534   -40.534     0.000     28.61
O(0)          9.747e-12
   O2              4.873e-12   4.874e-12   -11.312   -11.312     0.000     30.40

------------------------------Saturation indices-------------------------------

  Phase               SI** log IAP   log K(298 K,   1 atm)

  Aragonite        -0.15     -8.48   -8.34  CaCO3
  Calcite          -0.00     -8.48   -8.48  CaCO3
  CH4(g)         -129.99   -132.79   -2.80  CH4
  CO2(g)           -6.17     -7.64   -1.47  CO2
  H2(g)           -37.43    -40.53   -3.10  H2
  H2O(g)           -1.50     -0.00    1.50  H2O
  O2(g)            -8.42    -11.31   -2.89  O2

**For a gas, SI = log10(fugacity). Fugacity = pressure * phi / 1 atm.
  For ideal gases, phi = 1.

Reaction step 96.

Using solution 1.	
Using kinetics 1.	

Kinetics 1.	

	Time step: 9.46728e+07 seconds  (Incremented time: 9.08859e+09 seconds)

	Rate name       Delta Moles Total Moles   Reactant        Coefficient

	Calcite          -2.217e-08   8.773e-04   CaCO3                     1

-----------------------------Solution composition------------------------------

	Elements           Molality       Moles

	C                 1.227e-04   1.227e-04
	Ca                1.227e-04   1.227e-04

----------------------------Description of solution----------------------------

                                       pH  =   9.906      Charge balance
                                       pe  =   8.786      Adjusted to redox equilibrium
      Specific Conductance (µS/cm,  25°C)  = 37
                          Density (g/cm³)  =   0.99706
                               Volume (L)  =   1.00296
                        Activity of water  =   1.000
                 Ionic strength (mol/kgw)  =   3.846e-04
                       Mass of water (kg)  =   1.000e+00
                 Total alkalinity (eq/kg)  =   2.453e-04
                       Total CO2 (mol/kg)  =   1.227e-04
                         Temperature (°C)  =  25.00
                  Electrical balance (eq)  =  -1.220e-09
 Percent error, 100*(Cat-|An|)/(Cat+|An|)  =  -0.00
                               Iterations  =   2
                                  Total H  = 1.110124e+02
                                  Total O  = 5.550658e+01

----------------------------Distribution of species----------------------------

                                               Log       Log       Log    mole V
   Species          Molality    Activity  Molality  Activity     Gamma   cm³/mol

   OH-             8.337e-05   8.151e-05    -4.079    -4.089    -0.010     -4.12
   H+              1.269e-10   1.242e-10    -9.897    -9.906    -0.009      0.00
   H2O             5.551e+01   1.000e+00     1.744    -0.000     0.000     18.07
C(-4)         0.000e+00
   CH4             0.000e+00   0.000e+00  -132.789  -132.788     0.000     35.46
C(4)          1.227e-04
   HCO3-           8.335e-05   8.152e-05    -4.079    -4.089    -0.010     24.67
   CO3-2           3.365e-05   3.079e-05    -4.473    -4.512    -0.039     -5.32
   CaCO3           5.529e-06   5.530e-06    -5.257    -5.257     0.000    -14.60
   CaHCO3+         1.137e-07   1.112e-07    -6.944    -6.954    -0.010      9.66
   CO2             2.276e-08   2.276e-08    -7.643    -7.643     0.000     34.43
   (CO2)2          9.507e-18   9.507e-18   -17.022   -17.022     0.000     68.87
Ca            1.227e-04
   Ca+2            1.169e-04   1.069e-04    -3.932    -3.971    -0.039    -18.18
   CaCO3           5.529e-06   5.530e-06    -5.257    -5.257     0.000    -14.60
   CaOH+           1.461e-07   1.429e-07    -6.835    -6.845    -0.010     (0)  
   CaHCO3+         1.137e-07   1.112e-07    -6.944    -6.954    -0.010      9.66
H(0)          0.000e+00
   H2              0.000e+00   0.000e+00   -40.534   -40.534     0.000     28.61
O(0)          9.749e-12
   O2              4.874e-12   4.875e-12   -11.312   -11.312     0.000     30.40

------------------------------Saturation indices-------------------------------

  Phase               SI** log IAP   log K(298 K,   1 atm)

  Aragonite        -0.15     -8.48   -8.34  CaCO3
  Calcite          -0.00     -8.48   -8.48  CaCO3
  CH4(g)         -129.99   -132.79   -2.80  CH4
  CO2(g)           -6.17     -7.64   -1.47  CO2
  H2(g)           -37.43    -40.53   -3.10  H2
  H2O(g)           -1.50     -0.00    1.50  H2O
  O2(g)            -8.42    -11.31   -2.89  O2

**For a gas, SI = log10(fugacity). Fugacity = pressure * phi / 1 atm.
  For ideal gases, phi = 1.

Reaction step 97.

Using solution 1.	
Using kinetics 1.	

Kinetics 1.	

	Time step: 9.46728e+07 seconds  (Incremented time: 9.18326e+09 seconds)

	Rate name       Delta Moles Total Moles   Reactant        Coefficient

	Calcite          -2.079e-08   8.773e-04   CaCO3                     1

-----------------------------Solution composition------------------------------

	Elements           Molality       Moles

	C                 1.227e-04   1.227e-04
	Ca                1.227e-04   1.227e-04

----------------------------Description of solution----------------------------

                                       pH  =   9.906      Charge balance
                                       pe  =   8.786      Adjusted to redox equilibrium
      Specific Conductance (µS/cm,  25°C)  = 37
                          Density (g/cm³)  =   0.99706
                               Volume (L)  =   1.00296
                        Activity of water  =   1.000
                 Ionic strength (mol/kgw)  =   3.846e-04
                       Mass of water (kg)  =   1.000e+00
                 Total alkalinity (eq/kg)  =   2.454e-04
                       Total CO2 (mol/kg)  =   1.227e-04
                         Temperature (°C)  =  25.00
                  Electrical balance (eq)  =  -1.220e-09
 Percent error, 100*(Cat-|An|)/(Cat+|An|)  =  -0.00
                               Iterations  =   2
                                  Total H  = 1.110124e+02
                                  Total O  = 5.550658e+01

----------------------------Distribution of species----------------------------

                                               Log       Log       Log    mole V
   Species          Molality    Activity  Molality  Activity     Gamma   cm³/mol

   OH-             8.338e-05   8.152e-05    -4.079    -4.089    -0.010     -4.12
   H+              1.269e-10   1.242e-10    -9.897    -9.906    -0.009      0.00
   H2O             5.551e+01   1.000e+00     1.744    -0.000     0.000     18.07
C(-4)         0.000e+00
   CH4             0.000e+00   0.000e+00  -132.788  -132.788     0.000     35.46
C(4)          1.227e-04
   HCO3-           8.336e-05   8.153e-05    -4.079    -4.089    -0.010     24.67
   CO3-2           3.366e-05   3.080e-05    -4.473    -4.512    -0.039     -5.32
   CaCO3           5.532e-06   5.532e-06    -5.257    -5.257     0.000    -14.60
   CaHCO3+         1.137e-07   1.112e-07    -6.944    -6.954    -0.010      9.66
   CO2             2.276e-08   2.276e-08    -7.643    -7.643     0.000     34.43
   (CO2)2          9.507e-18   9.507e-18   -17.022   -17.022     0.000     68.87
Ca            1.227e-04
   Ca+2            1.169e-04   1.069e-04    -3.932    -3.971    -0.039    -18.18
   CaCO3           5.532e-06   5.532e-06    -5.257    -5.257     0.000    -14.60
   CaOH+           1.462e-07   1.429e-07    -6.835    -6.845    -0.010     (0)  
   CaHCO3+         1.137e-07   1.112e-07    -6.944    -6.954    -0.010      9.66
H(0)          0.000e+00
   H2              0.000e+00   0.000e+00   -40.534   -40.534     0.000     28.61
O(0)          9.742e-12
   O2              4.871e-12   4.871e-12   -11.312   -11.312     0.000     30.40

------------------------------Saturation indices-------------------------------

  Phase               SI** log IAP   log K(298 K,   1 atm)

  Aragonite        -0.15     -8.48   -8.34  CaCO3
  Calcite          -0.00     -8.48   -8.48  CaCO3
  CH4(g)         -129.99   -132.79   -2.80  CH4
  CO2(g)           -6.17     -7.64   -1.47  CO2
  H2(g)           -37.43    -40.53   -3.10  H2
  H2O(g)           -1.50     -0.00    1.50  H2O
  O2(g)            -8.42    -11.31   -2.89  O2

**For a gas, SI = log10(fugacity). Fugacity = pressure * phi / 1 atm.
  For ideal gases, phi = 1.

Reaction step 98.

Using solution 1.	
Using kinetics 1.	

Kinetics 1.	

	Time step: 9.46728e+07 seconds  (Incremented time: 9.27793e+09 seconds)

	Rate name       Delta Moles Total Moles   Reactant        Coefficient

	Calcite          -1.949e-08   8.773e-04   CaCO3                     1

-----------------------------Solution composition------------------------------

	Elements           Molality       Moles

	C                 1.227e-04   1.227e-04
	Ca                1.227e-04   1.227e-04

----------------------------Description of solution----------------------------

                                       pH  =   9.906      Charge balance
                                       pe  =   8.786      Adjusted to redox equilibrium
      Specific Conductance (µS/cm,  25°C)  = 37
                          Density (g/cm³)  =   0.99706
                               Volume (L)  =   1.00296
                        Activity of water  =   1.000
                 Ionic strength (mol/kgw)  =   3.847e-04
                       Mass of water (kg)  =   1.000e+00
                 Total alkalinity (eq/kg)  =   2.454e-04
                       Total CO2 (mol/kg)  =   1.227e-04
                         Temperature (°C)  =  25.00
                  Electrical balance (eq)  =  -1.220e-09
 Percent error, 100*(Cat-|An|)/(Cat+|An|)  =  -0.00
                               Iterations  =   2
                                  Total H  = 1.110124e+02
                                  Total O  = 5.550658e+01

----------------------------Distribution of species----------------------------

                                               Log       Log       Log    mole V
   Species          Molality    Activity  Molality  Activity     Gamma   cm³/mol

   OH-             8.339e-05   8.153e-05    -4.079    -4.089    -0.010     -4.12
   H+              1.269e-10   1.241e-10    -9.897    -9.906    -0.009      0.00
   H2O             5.551e+01   1.000e+00     1.744    -0.000     0.000     18.07
C(-4)         0.000e+00
   CH4             0.000e+00   0.000e+00  -132.788  -132.788     0.000     35.46
C(4)          1.227e-04
   HCO3-           8.337e-05   8.154e-05    -4.079    -4.089    -0.010     24.67
   CO3-2           3.367e-05   3.080e-05    -4.473    -4.511    -0.039     -5.32
   CaCO3           5.534e-06   5.534e-06    -5.257    -5.257     0.000    -14.60
   CaHCO3+         1.138e-07   1.113e-07    -6.944    -6.954    -0.010      9.66
   CO2             2.276e-08   2.276e-08    -7.643    -7.643     0.000     34.43
   (CO2)2          9.507e-18   9.507e-18   -17.022   -17.022     0.000     68.87
Ca            1.227e-04
   Ca+2            1.169e-04   1.070e-04    -3.932    -3.971    -0.039    -18.18
   CaCO3           5.534e-06   5.534e-06    -5.257    -5.257     0.000    -14.60
   CaOH+           1.462e-07   1.430e-07    -6.835    -6.845    -0.010     (0)  
   CaHCO3+         1.138e-07   1.113e-07    -6.944    -6.954    -0.010      9.66
H(0)          0.000e+00
   H2              0.000e+00   0.000e+00   -40.534   -40.534     0.000     28.61
O(0)          9.741e-12
   O2              4.871e-12   4.871e-12   -11.312   -11.312     0.000     30.40

------------------------------Saturation indices-------------------------------

  Phase               SI** log IAP   log K(298 K,   1 atm)

  Aragonite        -0.15     -8.48   -8.34  CaCO3
  Calcite          -0.00     -8.48   -8.48  CaCO3
  CH4(g)         -129.99   -132.79   -2.80  CH4
  CO2(g)           -6.17     -7.64   -1.47  CO2
  H2(g)           -37.43    -40.53   -3.10  H2
  H2O(g)           -1.50     -0.00    1.50  H2O
  O2(g)            -8.42    -11.31   -2.89  O2

**For a gas, SI = log10(fugacity). Fugacity = pressure * phi / 1 atm.
  For ideal gases, phi = 1.

Reaction step 99.

Using solution 1.	
Using kinetics 1.	

Kinetics 1.	

	Time step: 9.46728e+07 seconds  (Incremented time: 9.37261e+09 seconds)

	Rate name       Delta Moles Total Moles   Reactant        Coefficient

	Calcite          -1.827e-08   8.773e-04   CaCO3                     1

-----------------------------Solution composition------------------------------

	Elements           Molality       Moles

	C                 1.227e-04   1.227e-04
	Ca                1.227e-04   1.227e-04

----------------------------Description of solution----------------------------

                                       pH  =   9.906      Charge balance
                                       pe  =   8.786      Adjusted to redox equilibrium
      Specific Conductance (µS/cm,  25°C)  = 37
                          Density (g/cm³)  =   0.99706
                               Volume (L)  =   1.00296
                        Activity of water  =   1.000
                 Ionic strength (mol/kgw)  =   3.847e-04
                       Mass of water (kg)  =   1.000e+00
                 Total alkalinity (eq/kg)  =   2.455e-04
                       Total CO2 (mol/kg)  =   1.227e-04
                         Temperature (°C)  =  25.00
                  Electrical balance (eq)  =  -1.220e-09
 Percent error, 100*(Cat-|An|)/(Cat+|An|)  =  -0.00
                               Iterations  =   2
                                  Total H  = 1.110124e+02
                                  Total O  = 5.550658e+01

----------------------------Distribution of species----------------------------

                                               Log       Log       Log    mole V
   Species          Molality    Activity  Molality  Activity     Gamma   cm³/mol

   OH-             8.340e-05   8.154e-05    -4.079    -4.089    -0.010     -4.12
   H+              1.269e-10   1.241e-10    -9.897    -9.906    -0.009      0.00
   H2O             5.551e+01   1.000e+00     1.744    -0.000     0.000     18.07
C(-4)         0.000e+00
   CH4             0.000e+00   0.000e+00  -132.788  -132.788     0.000     35.46
C(4)          1.227e-04
   HCO3-           8.338e-05   8.155e-05    -4.079    -4.089    -0.010     24.67
   CO3-2           3.368e-05   3.081e-05    -4.473    -4.511    -0.039     -5.32
   CaCO3           5.536e-06   5.536e-06    -5.257    -5.257     0.000    -14.60
   CaHCO3+         1.138e-07   1.113e-07    -6.944    -6.954    -0.010      9.66
   CO2             2.276e-08   2.276e-08    -7.643    -7.643     0.000     34.43
   (CO2)2          9.507e-18   9.507e-18   -17.022   -17.022     0.000     68.87
Ca            1.227e-04
   Ca+2            1.169e-04   1.070e-04    -3.932    -3.971    -0.039    -18.18
   CaCO3           5.536e-06   5.536e-06    -5.257    -5.257     0.000    -14.60
   CaOH+           1.463e-07   1.430e-07    -6.835    -6.845    -0.010     (0)  
   CaHCO3+         1.138e-07   1.113e-07    -6.944    -6.954    -0.010      9.66
H(0)          0.000e+00
   H2              0.000e+00   0.000e+00   -40.534   -40.534     0.000     28.61
O(0)          9.748e-12
   O2              4.874e-12   4.875e-12   -11.312   -11.312     0.000     30.40

------------------------------Saturation indices-------------------------------

  Phase               SI** log IAP   log K(298 K,   1 atm)

  Aragonite        -0.15     -8.48   -8.34  CaCO3
  Calcite          -0.00     -8.48   -8.48  CaCO3
  CH4(g)         -129.99   -132.79   -2.80  CH4
  CO2(g)           -6.17     -7.64   -1.47  CO2
  H2(g)           -37.43    -40.53   -3.10  H2
  H2O(g)           -1.50     -0.00    1.50  H2O
  O2(g)            -8.42    -11.31   -2.89  O2

**For a gas, SI = log10(fugacity). Fugacity = pressure * phi / 1 atm.
  For ideal gases, phi = 1.

Reaction step 100.

Using solution 1.	
Using kinetics 1.	

Kinetics 1.	

	Time step: 9.46728e+07 seconds  (Incremented time: 9.46728e+09 seconds)

	Rate name       Delta Moles Total Moles   Reactant        Coefficient

	Calcite          -1.714e-08   8.773e-04   CaCO3                     1

-----------------------------Solution composition------------------------------

	Elements           Molality       Moles

	C                 1.227e-04   1.227e-04
	Ca                1.227e-04   1.227e-04

----------------------------Description of solution----------------------------

                                       pH  =   9.906      Charge balance
                                       pe  =   8.786      Adjusted to redox equilibrium
      Specific Conductance (µS/cm,  25°C)  = 37
                          Density (g/cm³)  =   0.99706
                               Volume (L)  =   1.00296
                        Activity of water  =   1.000
                 Ionic strength (mol/kgw)  =   3.848e-04
                       Mass of water (kg)  =   1.000e+00
                 Total alkalinity (eq/kg)  =   2.455e-04
                       Total CO2 (mol/kg)  =   1.227e-04
                         Temperature (°C)  =  25.00
                  Electrical balance (eq)  =  -1.220e-09
 Percent error, 100*(Cat-|An|)/(Cat+|An|)  =  -0.00
                               Iterations  =   2
                                  Total H  = 1.110124e+02
                                  Total O  = 5.550659e+01

----------------------------Distribution of species----------------------------

                                               Log       Log       Log    mole V
   Species          Molality    Activity  Molality  Activity     Gamma   cm³/mol

   OH-             8.341e-05   8.155e-05    -4.079    -4.089    -0.010     -4.12
   H+              1.269e-10   1.241e-10    -9.897    -9.906    -0.009      0.00
   H2O             5.551e+01   1.000e+00     1.744    -0.000     0.000     18.07
C(-4)         0.000e+00
   CH4             0.000e+00   0.000e+00  -132.789  -132.789     0.000     35.46
C(4)          1.227e-04
   HCO3-           8.339e-05   8.155e-05    -4.079    -4.089    -0.010     24.67
   CO3-2           3.368e-05   3.081e-05    -4.473    -4.511    -0.039     -5.32
   CaCO3           5.537e-06   5.538e-06    -5.257    -5.257     0.000    -14.60
   CaHCO3+         1.138e-07   1.113e-07    -6.944    -6.953    -0.010      9.66
   CO2             2.276e-08   2.276e-08    -7.643    -7.643     0.000     34.43
   (CO2)2          9.507e-18   9.507e-18   -17.022   -17.022     0.000     68.87
Ca            1.227e-04
   Ca+2            1.170e-04   1.070e-04    -3.932    -3.971    -0.039    -18.18
   CaCO3           5.537e-06   5.538e-06    -5.257    -5.257     0.000    -14.60
   CaOH+           1.463e-07   1.430e-07    -6.835    -6.845    -0.010     (0)  
   CaHCO3+         1.138e-07   1.113e-07    -6.944    -6.953    -0.010      9.66
H(0)          0.000e+00
   H2              0.000e+00   0.000e+00   -40.534   -40.534     0.000     28.61
O(0)          9.754e-12
   O2              4.877e-12   4.878e-12   -11.312   -11.312     0.000     30.40

------------------------------Saturation indices-------------------------------

  Phase               SI** log IAP   log K(298 K,   1 atm)

  Aragonite        -0.15     -8.48   -8.34  CaCO3
  Calcite          -0.00     -8.48   -8.48  CaCO3
  CH4(g)         -129.99   -132.79   -2.80  CH4
  CO2(g)           -6.17     -7.64   -1.47  CO2
  H2(g)           -37.43    -40.53   -3.10  H2
  H2O(g)           -1.50     -0.00    1.50  H2O
  O2(g)            -8.42    -11.31   -2.89  O2

**For a gas, SI = log10(fugacity). Fugacity = pressure * phi / 1 atm.
  For ideal gases, phi = 1.

------------------
End of simulation.
------------------

------------------------------------
Reading input data for simulation 2.
------------------------------------

--------------------------------
End of Run after 15.217 Seconds.
--------------------------------

