   Input file: calcite3.phq
  Output file: calcite3.phq.out
Database file: C:\Users\Eirik\Desktop\phreeqc-3.6.2-15100-x64\database\phreeqc.dat

------------------
Reading data base.
------------------

	SOLUTION_MASTER_SPECIES
	SOLUTION_SPECIES
	PHASES
	EXCHANGE_MASTER_SPECIES
	EXCHANGE_SPECIES
	SURFACE_MASTER_SPECIES
	SURFACE_SPECIES
	RATES
	END
------------------------------------
Reading input data for simulation 1.
------------------------------------

	Database file: C:\Users\Eirik\Desktop\phreeqc-3.6.2-15100-x64\database\phreeqc.dat
	SOLUTION 2
		temp 100
	RATES 2
	Flourite
		start
		1 ka = parm(1)		#Rate constant for acid mechanism (mol/m^2/s)
		2 n = parm(2)		#Reaction order n with respect to H+	
		3 kn = parm(3)		#Rate constant for acid mechanism (mol/m^2/s)
		10 rate = ((ka*(ACT("H+")^n)) + kn)* (1 -  SR("Calcite"))	#Overall rate
		20 moles = rate*time
		30 save moles
		end
	KINETICS 2
	Calcite
		formula CaCO3
		m0  1e-3             			#Initial amount 1 mmol     	
		parms 0.501 1 1.5e-6			#Values for ka, n and kn
		time_steps 35 years in 100          #60 years in 100 time steps
	INCREMENTAL_REACTIONS true
	USER_PUNCH 				#Write the simulation time in years to the selected output file
		headings time_yr
		10 PUNCH total_time/3.1536e7 
	SELECTED_OUTPUT 
		file Cex3.xls
		reset false
		time true
		kinetic_reactants Calcite
		saturation_indices Calcite
		step true
		ph true
	USER_GRAPH 2
		-chart_title "Calcite saturation, T=100, no equilibrium gas"
		-axis_titles "Years" "SR" "Calcite remaining (mmol)"
		-headings time SR Calcite_remaining
		-initial_solutions  false
		-start
		10 graph_x total_time/3.1536e7 		
		20 graph_y SR("Calcite")		
		30 graph_sy KIN("Calcite")*1e3		
		-end
	END
-------------------------------------------
Beginning of initial solution calculations.
-------------------------------------------

Initial solution 2.	

-----------------------------Solution composition------------------------------

	Elements           Molality       Moles

	Pure water     

----------------------------Description of solution----------------------------

                                       pH  =   7.000    
                                       pe  =   4.000    
      Specific Conductance (µS/cm, 100°C)  = 2
                          Density (g/cm³)  =   0.95835
                               Volume (L)  =   1.04346
                        Activity of water  =   1.000
                 Ionic strength (mol/kgw)  =   2.945e-06
                       Mass of water (kg)  =   1.000e+00
                 Total alkalinity (eq/kg)  =   5.690e-06
                         Temperature (°C)  = 100.00
                  Electrical balance (eq)  =  -5.690e-06
 Percent error, 100*(Cat-|An|)/(Cat+|An|)  = -96.60
                               Iterations  =   2
                                  Total H  = 1.110124e+02
                                  Total O  = 5.550622e+01

----------------------------Distribution of species----------------------------

                                               Log       Log       Log    mole V
   Species          Molality    Activity  Molality  Activity     Gamma   cm³/mol

   OH-             5.790e-06   5.777e-06    -5.237    -5.238    -0.001     -5.96
   H+              1.002e-07   1.000e-07    -6.999    -7.000    -0.001      0.00
   H2O             5.551e+01   1.000e+00     1.744    -0.000     0.000     18.80
H(0)          7.796e-26
   H2              3.898e-26   3.898e-26   -25.409   -25.409     0.000     28.57
O(0)          1.199e-22
   O2              5.994e-23   5.994e-23   -22.222   -22.222     0.000     33.90

------------------------------Saturation indices-------------------------------

  Phase               SI** log IAP   log K(373 K,   1 atm)

  H2(g)           -22.31    -25.41   -3.10  H2
  H2O(g)           -0.00     -0.00    0.00  H2O
  O2(g)           -19.11    -22.22   -3.11  O2

**For a gas, SI = log10(fugacity). Fugacity = pressure * phi / 1 atm.
  For ideal gases, phi = 1.

-----------------------------------------
Beginning of batch-reaction calculations.
-----------------------------------------

Reaction step 1.

Using solution 2.	
Using kinetics 2.	

Kinetics 2.	

	Time step: 1.10452e+07 seconds  (Incremented time: 1.10452e+07 seconds)

	Rate name       Delta Moles Total Moles   Reactant        Coefficient

	Calcite          -9.700e-06   9.903e-04   CaCO3                     1

-----------------------------Solution composition------------------------------

	Elements           Molality       Moles

	C                 9.700e-06   9.700e-06
	Ca                9.700e-06   9.700e-06

----------------------------Description of solution----------------------------

                                       pH  =   7.446      Charge balance
                                       pe  =  -1.827      Adjusted to redox equilibrium
      Specific Conductance (µS/cm, 100°C)  = 11
                          Density (g/cm³)  =   0.95835
                               Volume (L)  =   1.04346
                        Activity of water  =   1.000
                 Ionic strength (mol/kgw)  =   3.199e-05
                       Mass of water (kg)  =   1.000e+00
                 Total alkalinity (eq/kg)  =   2.509e-05
                       Total CO2 (mol/kg)  =   9.700e-06
                         Temperature (°C)  = 100.00
                  Electrical balance (eq)  =  -5.690e-06
 Percent error, 100*(Cat-|An|)/(Cat+|An|)  = -12.77
                               Iterations  =  72
                                  Total H  = 1.110124e+02
                                  Total O  = 5.550625e+01

----------------------------Distribution of species----------------------------

                                               Log       Log       Log    mole V
   Species          Molality    Activity  Molality  Activity     Gamma   cm³/mol

   OH-             1.625e-05   1.612e-05    -4.789    -4.793    -0.003     -5.95
   H+              3.611e-08   3.584e-08    -7.442    -7.446    -0.003      0.00
   H2O             5.551e+01   1.000e+00     1.744    -0.000     0.000     18.80
C(-4)         2.980e-36
   CH4             2.980e-36   2.980e-36   -35.526   -35.526     0.000     41.06
C(4)          9.700e-06
   HCO3-           8.839e-06   8.771e-06    -5.054    -5.057    -0.003     24.66
   CO2             8.394e-07   8.394e-07    -6.076    -6.076     0.000     38.89
   CO3-2           1.766e-08   1.712e-08    -7.753    -7.767    -0.013    -14.21
   CaCO3           2.377e-09   2.377e-09    -8.624    -8.624     0.000    -14.43
   CaHCO3+         1.885e-09   1.871e-09    -8.725    -8.728    -0.003     10.48
   (CO2)2          6.539e-14   6.539e-14   -13.184   -13.184     0.000     77.78
Ca            9.700e-06
   Ca+2            9.696e-06   9.400e-06    -5.013    -5.027    -0.013    -19.99
   CaCO3           2.377e-09   2.377e-09    -8.624    -8.624     0.000    -14.43
   CaHCO3+         1.885e-09   1.871e-09    -8.725    -8.728    -0.003     10.48
   CaOH+           4.387e-11   4.353e-11   -10.358   -10.361    -0.003     (0)  
H(0)          4.522e-15
   H2              2.261e-15   2.261e-15   -14.646   -14.646     0.000     28.57
O(0)          0.000e+00
   O2              0.000e+00   0.000e+00   -43.749   -43.749     0.000     33.90

------------------------------Saturation indices-------------------------------

  Phase               SI** log IAP   log K(373 K,   1 atm)

  Aragonite        -3.63    -12.79   -9.17  CaCO3
  Calcite          -3.53    -12.79   -9.27  CaCO3
  CH4(g)          -32.52    -35.53   -3.00  CH4
  CO2(g)           -4.10     -6.08   -1.98  CO2
  H2(g)           -11.54    -14.65   -3.10  H2
  H2O(g)           -0.00     -0.00    0.00  H2O
  O2(g)           -40.63    -43.75   -3.11  O2

**For a gas, SI = log10(fugacity). Fugacity = pressure * phi / 1 atm.
  For ideal gases, phi = 1.

Reaction step 2.

Using solution 2.	
Using kinetics 2.	

Kinetics 2.	

	Time step: 1.10452e+07 seconds  (Incremented time: 2.20903e+07 seconds)

	Rate name       Delta Moles Total Moles   Reactant        Coefficient

	Calcite          -9.519e-06   9.808e-04   CaCO3                     1

-----------------------------Solution composition------------------------------

	Elements           Molality       Moles

	C                 1.922e-05   1.922e-05
	Ca                1.922e-05   1.922e-05

----------------------------Description of solution----------------------------

                                       pH  =   7.648      Charge balance
                                       pe  =  -2.195      Adjusted to redox equilibrium
      Specific Conductance (µS/cm, 100°C)  = 20
                          Density (g/cm³)  =   0.95835
                               Volume (L)  =   1.04346
                        Activity of water  =   1.000
                 Ionic strength (mol/kgw)  =   6.052e-05
                       Mass of water (kg)  =   1.000e+00
                 Total alkalinity (eq/kg)  =   4.413e-05
                       Total CO2 (mol/kg)  =   1.922e-05
                         Temperature (°C)  = 100.00
                  Electrical balance (eq)  =  -5.690e-06
 Percent error, 100*(Cat-|An|)/(Cat+|An|)  =  -6.89
                               Iterations  =  32
                                  Total H  = 1.110124e+02
                                  Total O  = 5.550628e+01

----------------------------Distribution of species----------------------------

                                               Log       Log       Log    mole V
   Species          Molality    Activity  Molality  Activity     Gamma   cm³/mol

   OH-             2.593e-05   2.566e-05    -4.586    -4.591    -0.005     -5.94
   H+              2.275e-08   2.251e-08    -7.643    -7.648    -0.005      0.00
   H2O             5.551e+01   1.000e+00     1.744    -0.000     0.000     18.80
C(-4)         8.119e-35
   CH4             8.119e-35   8.120e-35   -34.090   -34.090     0.000     41.06
C(4)          1.922e-05
   HCO3-           1.806e-05   1.787e-05    -4.743    -4.748    -0.005     24.66
   CO2             1.075e-06   1.075e-06    -5.969    -5.969     0.000     38.89
   CO3-2           5.793e-08   5.553e-08    -7.237    -7.255    -0.018    -14.19
   CaCO3           1.509e-08   1.509e-08    -7.821    -7.821     0.000    -14.43
   CaHCO3+         7.540e-09   7.461e-09    -8.123    -8.127    -0.005     10.48
   (CO2)2          1.072e-13   1.072e-13   -12.970   -12.970     0.000     77.78
Ca            1.922e-05
   Ca+2            1.920e-05   1.840e-05    -4.717    -4.735    -0.018    -19.97
   CaCO3           1.509e-08   1.509e-08    -7.821    -7.821     0.000    -14.43
   CaHCO3+         7.540e-09   7.461e-09    -8.123    -8.127    -0.005     10.48
   CaOH+           1.371e-10   1.356e-10    -9.863    -9.868    -0.005     (0)  
H(0)          9.711e-15
   H2              4.856e-15   4.856e-15   -14.314   -14.314     0.000     28.57
O(0)          0.000e+00
   O2              0.000e+00   0.000e+00   -44.413   -44.413     0.000     33.90

------------------------------Saturation indices-------------------------------

  Phase               SI** log IAP   log K(373 K,   1 atm)

  Aragonite        -2.82    -11.99   -9.17  CaCO3
  Calcite          -2.72    -11.99   -9.27  CaCO3
  CH4(g)          -31.09    -34.09   -3.00  CH4
  CO2(g)           -3.99     -5.97   -1.98  CO2
  H2(g)           -11.21    -14.31   -3.10  H2
  H2O(g)           -0.00     -0.00    0.00  H2O
  O2(g)           -41.30    -44.41   -3.11  O2

**For a gas, SI = log10(fugacity). Fugacity = pressure * phi / 1 atm.
  For ideal gases, phi = 1.

Reaction step 3.

Using solution 2.	
Using kinetics 2.	

Kinetics 2.	

	Time step: 1.10452e+07 seconds  (Incremented time: 3.31355e+07 seconds)

	Rate name       Delta Moles Total Moles   Reactant        Coefficient

	Calcite          -9.294e-06   9.715e-04   CaCO3                     1

-----------------------------Solution composition------------------------------

	Elements           Molality       Moles

	C                 2.851e-05   2.851e-05
	Ca                2.851e-05   2.851e-05

----------------------------Description of solution----------------------------

                                       pH  =   7.780      Charge balance
                                       pe  =  -2.151      Adjusted to redox equilibrium
      Specific Conductance (µS/cm, 100°C)  = 28
                          Density (g/cm³)  =   0.95835
                               Volume (L)  =   1.04346
                        Activity of water  =   1.000
                 Ionic strength (mol/kgw)  =   8.835e-05
                       Mass of water (kg)  =   1.000e+00
                 Total alkalinity (eq/kg)  =   6.272e-05
                       Total CO2 (mol/kg)  =   2.851e-05
                         Temperature (°C)  = 100.00
                  Electrical balance (eq)  =  -5.690e-06
 Percent error, 100*(Cat-|An|)/(Cat+|An|)  =  -4.76
                               Iterations  =  22
                                  Total H  = 1.110124e+02
                                  Total O  = 5.550631e+01

----------------------------Distribution of species----------------------------

                                               Log       Log       Log    mole V
   Species          Molality    Activity  Molality  Activity     Gamma   cm³/mol

   OH-             3.524e-05   3.479e-05    -4.453    -4.458    -0.006     -5.94
   H+              1.681e-08   1.660e-08    -7.774    -7.780    -0.005      0.00
   H2O             5.551e+01   1.000e+00     1.744    -0.000     0.000     18.80
C(-4)         3.449e-36
   CH4             3.449e-36   3.449e-36   -35.462   -35.462     0.000     41.06
C(4)          2.851e-05
   HCO3-           2.714e-05   2.680e-05    -4.566    -4.572    -0.006     24.67
   CO2             1.188e-06   1.188e-06    -5.925    -5.925     0.000     38.89
   CO3-2           1.188e-07   1.129e-07    -6.925    -6.947    -0.022    -14.18
   CaCO3           4.508e-08   4.508e-08    -7.346    -7.346     0.000    -14.43
   CaHCO3+         1.665e-08   1.644e-08    -7.779    -7.784    -0.006     10.48
   (CO2)2          1.311e-13   1.311e-13   -12.883   -12.883     0.000     77.78
Ca            2.851e-05
   Ca+2            2.845e-05   2.703e-05    -4.546    -4.568    -0.022    -19.96
   CaCO3           4.508e-08   4.508e-08    -7.346    -7.346     0.000    -14.43
   CaHCO3+         1.665e-08   1.644e-08    -7.779    -7.784    -0.006     10.48
   CaOH+           2.737e-10   2.702e-10    -9.563    -9.568    -0.006     (0)  
H(0)          4.299e-15
   H2              2.150e-15   2.150e-15   -14.668   -14.668     0.000     28.57
O(0)          0.000e+00
   O2              0.000e+00   0.000e+00   -43.705   -43.705     0.000     33.90

------------------------------Saturation indices-------------------------------

  Phase               SI** log IAP   log K(373 K,   1 atm)

  Aragonite        -2.35    -11.52   -9.17  CaCO3
  Calcite          -2.25    -11.52   -9.27  CaCO3
  CH4(g)          -32.46    -35.46   -3.00  CH4
  CO2(g)           -3.95     -5.93   -1.98  CO2
  H2(g)           -11.57    -14.67   -3.10  H2
  H2O(g)           -0.00     -0.00    0.00  H2O
  O2(g)           -40.59    -43.71   -3.11  O2

**For a gas, SI = log10(fugacity). Fugacity = pressure * phi / 1 atm.
  For ideal gases, phi = 1.

Reaction step 4.

Using solution 2.	
Using kinetics 2.	

Kinetics 2.	

	Time step: 1.10452e+07 seconds  (Incremented time: 4.41806e+07 seconds)

	Rate name       Delta Moles Total Moles   Reactant        Coefficient

	Calcite          -9.027e-06   9.625e-04   CaCO3                     1

-----------------------------Solution composition------------------------------

	Elements           Molality       Moles

	C                 3.754e-05   3.754e-05
	Ca                3.754e-05   3.754e-05

----------------------------Description of solution----------------------------

                                       pH  =   7.877      Charge balance
                                       pe  =   5.064      Adjusted to redox equilibrium
      Specific Conductance (µS/cm, 100°C)  = 36
                          Density (g/cm³)  =   0.95835
                               Volume (L)  =   1.04346
                        Activity of water  =   1.000
                 Ionic strength (mol/kgw)  =   1.153e-04
                       Mass of water (kg)  =   1.000e+00
                 Total alkalinity (eq/kg)  =   8.077e-05
                       Total CO2 (mol/kg)  =   3.754e-05
                         Temperature (°C)  = 100.00
                  Electrical balance (eq)  =  -5.690e-06
 Percent error, 100*(Cat-|An|)/(Cat+|An|)  =  -3.66
                               Iterations  =  47
                                  Total H  = 1.110124e+02
                                  Total O  = 5.550634e+01

----------------------------Distribution of species----------------------------

                                               Log       Log       Log    mole V
   Species          Molality    Activity  Molality  Activity     Gamma   cm³/mol

   OH-             4.420e-05   4.356e-05    -4.355    -4.361    -0.006     -5.94
   H+              1.345e-08   1.326e-08    -7.871    -7.877    -0.006      0.00
   H2O             5.551e+01   1.000e+00     1.744    -0.000     0.000     18.80
C(-4)         0.000e+00
   CH4             0.000e+00   0.000e+00   -93.938   -93.938     0.000     41.06
C(4)          3.754e-05
   HCO3-           3.596e-05   3.544e-05    -4.444    -4.451    -0.006     24.67
   CO2             1.255e-06   1.255e-06    -5.901    -5.901     0.000     38.89
   CO3-2           1.981e-07   1.869e-07    -6.703    -6.728    -0.025    -14.17
   CaCO3           9.745e-08   9.745e-08    -7.011    -7.011     0.000    -14.43
   CaHCO3+         2.880e-08   2.838e-08    -7.541    -7.547    -0.006     10.49
   (CO2)2          1.462e-13   1.462e-13   -12.835   -12.835     0.000     77.78
Ca            3.754e-05
   Ca+2            3.741e-05   3.530e-05    -4.427    -4.452    -0.025    -19.95
   CaCO3           9.745e-08   9.745e-08    -7.011    -7.011     0.000    -14.43
   CaHCO3+         2.880e-08   2.838e-08    -7.541    -7.547    -0.006     10.49
   CaOH+           4.482e-10   4.417e-10    -9.349    -9.355    -0.006     (0)  
H(0)          1.020e-29
   H2              5.101e-30   5.101e-30   -29.292   -29.292     0.000     28.57
O(0)          7.002e-15
   O2              3.501e-15   3.501e-15   -14.456   -14.456     0.000     33.90

------------------------------Saturation indices-------------------------------

  Phase               SI** log IAP   log K(373 K,   1 atm)

  Aragonite        -2.01    -11.18   -9.17  CaCO3
  Calcite          -1.91    -11.18   -9.27  CaCO3
  CH4(g)          -90.93    -93.94   -3.00  CH4
  CO2(g)           -3.92     -5.90   -1.98  CO2
  H2(g)           -26.19    -29.29   -3.10  H2
  H2O(g)           -0.00     -0.00    0.00  H2O
  O2(g)           -11.34    -14.46   -3.11  O2

**For a gas, SI = log10(fugacity). Fugacity = pressure * phi / 1 atm.
  For ideal gases, phi = 1.

Reaction step 5.

Using solution 2.	
Using kinetics 2.	

Kinetics 2.	

	Time step: 1.10452e+07 seconds  (Incremented time: 5.52258e+07 seconds)

	Rate name       Delta Moles Total Moles   Reactant        Coefficient

	Calcite          -8.724e-06   9.537e-04   CaCO3                     1

-----------------------------Solution composition------------------------------

	Elements           Molality       Moles

	C                 4.626e-05   4.626e-05
	Ca                4.626e-05   4.626e-05

----------------------------Description of solution----------------------------

                                       pH  =   7.954      Charge balance
                                       pe  =   5.018      Adjusted to redox equilibrium
      Specific Conductance (µS/cm, 100°C)  = 44
                          Density (g/cm³)  =   0.95835
                               Volume (L)  =   1.04346
                        Activity of water  =   1.000
                 Ionic strength (mol/kgw)  =   1.413e-04
                       Mass of water (kg)  =   1.000e+00
                 Total alkalinity (eq/kg)  =   9.822e-05
                       Total CO2 (mol/kg)  =   4.626e-05
                         Temperature (°C)  = 100.00
                  Electrical balance (eq)  =  -5.690e-06
 Percent error, 100*(Cat-|An|)/(Cat+|An|)  =  -3.00
                               Iterations  =  21
                                  Total H  = 1.110124e+02
                                  Total O  = 5.550636e+01

----------------------------Distribution of species----------------------------

                                               Log       Log       Log    mole V
   Species          Molality    Activity  Molality  Activity     Gamma   cm³/mol

   OH-             5.279e-05   5.195e-05    -4.277    -4.284    -0.007     -5.93
   H+              1.130e-08   1.112e-08    -7.947    -7.954    -0.007      0.00
   H2O             5.551e+01   1.000e+00     1.744    -0.000     0.000     18.80
C(-4)         0.000e+00
   CH4             0.000e+00   0.000e+00   -94.162   -94.162     0.000     41.06
C(4)          4.626e-05
   HCO3-           4.445e-05   4.374e-05    -4.352    -4.359    -0.007     24.67
   CO2             1.299e-06   1.299e-06    -5.886    -5.886     0.000     38.89
   CO3-2           2.934e-07   2.751e-07    -6.533    -6.560    -0.028    -14.16
   CaCO3           1.755e-07   1.755e-07    -6.756    -6.756     0.000    -14.43
   CaHCO3+         4.354e-08   4.285e-08    -7.361    -7.368    -0.007     10.49
   (CO2)2          1.566e-13   1.566e-13   -12.805   -12.805     0.000     77.78
Ca            4.626e-05
   Ca+2            4.604e-05   4.317e-05    -4.337    -4.365    -0.028    -19.94
   CaCO3           1.755e-07   1.755e-07    -6.756    -6.756     0.000    -14.43
   CaHCO3+         4.354e-08   4.285e-08    -7.361    -7.368    -0.007     10.49
   CaOH+           6.548e-10   6.443e-10    -9.184    -9.191    -0.007     (0)  
H(0)          8.888e-30
   H2              4.444e-30   4.444e-30   -29.352   -29.352     0.000     28.57
O(0)          9.225e-15
   O2              4.612e-15   4.613e-15   -14.336   -14.336     0.000     33.90

------------------------------Saturation indices-------------------------------

  Phase               SI** log IAP   log K(373 K,   1 atm)

  Aragonite        -1.76    -10.93   -9.17  CaCO3
  Calcite          -1.66    -10.93   -9.27  CaCO3
  CH4(g)          -91.16    -94.16   -3.00  CH4
  CO2(g)           -3.91     -5.89   -1.98  CO2
  H2(g)           -26.25    -29.35   -3.10  H2
  H2O(g)           -0.00     -0.00    0.00  H2O
  O2(g)           -11.22    -14.34   -3.11  O2

**For a gas, SI = log10(fugacity). Fugacity = pressure * phi / 1 atm.
  For ideal gases, phi = 1.

Reaction step 6.

Using solution 2.	
Using kinetics 2.	

Kinetics 2.	

	Time step: 1.10452e+07 seconds  (Incremented time: 6.6271e+07 seconds)

	Rate name       Delta Moles Total Moles   Reactant        Coefficient

	Calcite          -8.394e-06   9.453e-04   CaCO3                     1

-----------------------------Solution composition------------------------------

	Elements           Molality       Moles

	C                 5.466e-05   5.466e-05
	Ca                5.466e-05   5.466e-05

----------------------------Description of solution----------------------------

                                       pH  =   8.016      Charge balance
                                       pe  =   4.742      Adjusted to redox equilibrium
      Specific Conductance (µS/cm, 100°C)  = 52
                          Density (g/cm³)  =   0.95835
                               Volume (L)  =   1.04346
                        Activity of water  =   1.000
                 Ionic strength (mol/kgw)  =   1.663e-04
                       Mass of water (kg)  =   1.000e+00
                 Total alkalinity (eq/kg)  =   1.150e-04
                       Total CO2 (mol/kg)  =   5.466e-05
                         Temperature (°C)  = 100.00
                  Electrical balance (eq)  =  -5.690e-06
 Percent error, 100*(Cat-|An|)/(Cat+|An|)  =  -2.55
                               Iterations  =  18
                                  Total H  = 1.110124e+02
                                  Total O  = 5.550639e+01

----------------------------Distribution of species----------------------------

                                               Log       Log       Log    mole V
   Species          Molality    Activity  Molality  Activity     Gamma   cm³/mol

   OH-             6.100e-05   5.994e-05    -4.215    -4.222    -0.008     -5.93
   H+              9.804e-09   9.637e-09    -8.009    -8.016    -0.007      0.00
   H2O             5.551e+01   1.000e+00     1.744    -0.000     0.000     18.80
C(-4)         0.000e+00
   CH4             0.000e+00   0.000e+00   -92.443   -92.443     0.000     41.06
C(4)          5.466e-05
   HCO3-           5.258e-05   5.168e-05    -4.279    -4.287    -0.008     24.67
   CO2             1.330e-06   1.330e-06    -5.876    -5.876     0.000     38.89
   CO3-2           4.021e-07   3.751e-07    -6.396    -6.426    -0.030    -14.15
   CaCO3           2.807e-07   2.807e-07    -6.552    -6.552     0.000    -14.43
   CaHCO3+         6.044e-08   5.940e-08    -7.219    -7.226    -0.008     10.49
   (CO2)2          1.642e-13   1.642e-13   -12.785   -12.785     0.000     77.78
Ca            5.466e-05
   Ca+2            5.432e-05   5.066e-05    -4.265    -4.295    -0.030    -19.93
   CaCO3           2.807e-07   2.807e-07    -6.552    -6.552     0.000    -14.43
   CaHCO3+         6.044e-08   5.940e-08    -7.219    -7.226    -0.008     10.49
   CaOH+           8.878e-10   8.724e-10    -9.052    -9.059    -0.008     (0)  
H(0)          2.376e-29
   H2              1.188e-29   1.188e-29   -28.925   -28.925     0.000     28.57
O(0)          1.290e-15
   O2              6.451e-16   6.452e-16   -15.190   -15.190     0.000     33.90

------------------------------Saturation indices-------------------------------

  Phase               SI** log IAP   log K(373 K,   1 atm)

  Aragonite        -1.56    -10.72   -9.17  CaCO3
  Calcite          -1.45    -10.72   -9.27  CaCO3
  CH4(g)          -89.44    -92.44   -3.00  CH4
  CO2(g)           -3.90     -5.88   -1.98  CO2
  H2(g)           -25.82    -28.93   -3.10  H2
  H2O(g)           -0.00     -0.00    0.00  H2O
  O2(g)           -12.08    -15.19   -3.11  O2

**For a gas, SI = log10(fugacity). Fugacity = pressure * phi / 1 atm.
  For ideal gases, phi = 1.

Reaction step 7.

Using solution 2.	
Using kinetics 2.	

Kinetics 2.	

	Time step: 1.10452e+07 seconds  (Incremented time: 7.73161e+07 seconds)

	Rate name       Delta Moles Total Moles   Reactant        Coefficient

	Calcite          -8.044e-06   9.373e-04   CaCO3                     1

-----------------------------Solution composition------------------------------

	Elements           Molality       Moles

	C                 6.270e-05   6.270e-05
	Ca                6.270e-05   6.270e-05

----------------------------Description of solution----------------------------

                                       pH  =   8.068      Charge balance
                                       pe  =   4.791      Adjusted to redox equilibrium
      Specific Conductance (µS/cm, 100°C)  = 59
                          Density (g/cm³)  =   0.95835
                               Volume (L)  =   1.04346
                        Activity of water  =   1.000
                 Ionic strength (mol/kgw)  =   1.901e-04
                       Mass of water (kg)  =   1.000e+00
                 Total alkalinity (eq/kg)  =   1.311e-04
                       Total CO2 (mol/kg)  =   6.270e-05
                         Temperature (°C)  = 100.00
                  Electrical balance (eq)  =  -5.690e-06
 Percent error, 100*(Cat-|An|)/(Cat+|An|)  =  -2.23
                               Iterations  =  18
                                  Total H  = 1.110124e+02
                                  Total O  = 5.550641e+01

----------------------------Distribution of species----------------------------

                                               Log       Log       Log    mole V
   Species          Molality    Activity  Molality  Activity     Gamma   cm³/mol

   OH-             6.882e-05   6.754e-05    -4.162    -4.170    -0.008     -5.93
   H+              8.711e-09   8.553e-09    -8.060    -8.068    -0.008      0.00
   H2O             5.551e+01   1.000e+00     1.744    -0.000     0.000     18.80
C(-4)         0.000e+00
   CH4             0.000e+00   0.000e+00   -93.243   -93.243     0.000     41.06
C(4)          6.270e-05
   HCO3-           6.033e-05   5.922e-05    -4.219    -4.228    -0.008     24.68
   CO2             1.353e-06   1.353e-06    -5.869    -5.869     0.000     38.89
   CO3-2           5.217e-07   4.843e-07    -6.283    -6.315    -0.032    -14.14
   CaCO3           4.131e-07   4.131e-07    -6.384    -6.384     0.000    -14.43
   CaHCO3+         7.905e-08   7.760e-08    -7.102    -7.110    -0.008     10.49
   (CO2)2          1.699e-13   1.699e-13   -12.770   -12.770     0.000     77.78
Ca            6.270e-05
   Ca+2            6.221e-05   5.775e-05    -4.206    -4.238    -0.032    -19.92
   CaCO3           4.131e-07   4.131e-07    -6.384    -6.384     0.000    -14.43
   CaHCO3+         7.905e-08   7.760e-08    -7.102    -7.110    -0.008     10.49
   CaOH+           1.142e-09   1.121e-09    -8.942    -8.951    -0.008     (0)  
H(0)          1.493e-29
   H2              7.467e-30   7.468e-30   -29.127   -29.127     0.000     28.57
O(0)          3.267e-15
   O2              1.633e-15   1.633e-15   -14.787   -14.787     0.000     33.90

------------------------------Saturation indices-------------------------------

  Phase               SI** log IAP   log K(373 K,   1 atm)

  Aragonite        -1.39    -10.55   -9.17  CaCO3
  Calcite          -1.29    -10.55   -9.27  CaCO3
  CH4(g)          -90.24    -93.24   -3.00  CH4
  CO2(g)           -3.89     -5.87   -1.98  CO2
  H2(g)           -26.03    -29.13   -3.10  H2
  H2O(g)           -0.00     -0.00    0.00  H2O
  O2(g)           -11.67    -14.79   -3.11  O2

**For a gas, SI = log10(fugacity). Fugacity = pressure * phi / 1 atm.
  For ideal gases, phi = 1.

Reaction step 8.

Using solution 2.	
Using kinetics 2.	

Kinetics 2.	

	Time step: 1.10452e+07 seconds  (Incremented time: 8.83613e+07 seconds)

	Rate name       Delta Moles Total Moles   Reactant        Coefficient

	Calcite          -7.680e-06   9.296e-04   CaCO3                     1

-----------------------------Solution composition------------------------------

	Elements           Molality       Moles

	C                 7.038e-05   7.038e-05
	Ca                7.038e-05   7.038e-05

----------------------------Description of solution----------------------------

                                       pH  =   8.112      Charge balance
                                       pe  =   4.477      Adjusted to redox equilibrium
      Specific Conductance (µS/cm, 100°C)  = 65
                          Density (g/cm³)  =   0.95835
                               Volume (L)  =   1.04346
                        Activity of water  =   1.000
                 Ionic strength (mol/kgw)  =   2.127e-04
                       Mass of water (kg)  =   1.000e+00
                 Total alkalinity (eq/kg)  =   1.465e-04
                       Total CO2 (mol/kg)  =   7.038e-05
                         Temperature (°C)  = 100.00
                  Electrical balance (eq)  =  -5.690e-06
 Percent error, 100*(Cat-|An|)/(Cat+|An|)  =  -2.00
                               Iterations  =  18
                                  Total H  = 1.110124e+02
                                  Total O  = 5.550643e+01

----------------------------Distribution of species----------------------------

                                               Log       Log       Log    mole V
   Species          Molality    Activity  Molality  Activity     Gamma   cm³/mol

   OH-             7.623e-05   7.473e-05    -4.118    -4.126    -0.009     -5.93
   H+              7.881e-09   7.730e-09    -8.103    -8.112    -0.008      0.00
   H2O             5.551e+01   1.000e+00     1.744    -0.000     0.000     18.80
C(-4)         0.000e+00
   CH4             0.000e+00   0.000e+00   -91.075   -91.075     0.000     41.06
C(4)          7.038e-05
   HCO3-           6.769e-05   6.638e-05    -4.169    -4.178    -0.009     24.68
   CO2             1.370e-06   1.370e-06    -5.863    -5.863     0.000     38.89
   CO3-2           6.497e-07   6.006e-07    -6.187    -6.221    -0.034    -14.14
   CaCO3           5.717e-07   5.717e-07    -6.243    -6.243     0.000    -14.43
   CaHCO3+         9.896e-08   9.705e-08    -7.005    -7.013    -0.008     10.49
   (CO2)2          1.743e-13   1.743e-13   -12.759   -12.759     0.000     77.78
Ca            7.038e-05
   Ca+2            6.971e-05   6.444e-05    -4.157    -4.191    -0.034    -19.92
   CaCO3           5.717e-07   5.717e-07    -6.243    -6.243     0.000    -14.43
   CaHCO3+         9.896e-08   9.705e-08    -7.005    -7.013    -0.008     10.49
   CaOH+           1.411e-09   1.384e-09    -8.850    -8.859    -0.009     (0)  
H(0)          5.184e-29
   H2              2.592e-29   2.592e-29   -28.586   -28.586     0.000     28.57
O(0)          2.711e-16
   O2              1.356e-16   1.356e-16   -15.868   -15.868     0.000     33.90

------------------------------Saturation indices-------------------------------

  Phase               SI** log IAP   log K(373 K,   1 atm)

  Aragonite        -1.25    -10.41   -9.17  CaCO3
  Calcite          -1.15    -10.41   -9.27  CaCO3
  CH4(g)          -88.07    -91.08   -3.00  CH4
  CO2(g)           -3.88     -5.86   -1.98  CO2
  H2(g)           -25.49    -28.59   -3.10  H2
  H2O(g)           -0.00     -0.00    0.00  H2O
  O2(g)           -12.75    -15.87   -3.11  O2

**For a gas, SI = log10(fugacity). Fugacity = pressure * phi / 1 atm.
  For ideal gases, phi = 1.

Reaction step 9.

Using solution 2.	
Using kinetics 2.	

Kinetics 2.	

	Time step: 1.10452e+07 seconds  (Incremented time: 9.94064e+07 seconds)

	Rate name       Delta Moles Total Moles   Reactant        Coefficient

	Calcite          -7.309e-06   9.223e-04   CaCO3                     1

-----------------------------Solution composition------------------------------

	Elements           Molality       Moles

	C                 7.769e-05   7.769e-05
	Ca                7.769e-05   7.769e-05

----------------------------Description of solution----------------------------

                                       pH  =   8.150      Charge balance
                                       pe  =  -2.721      Adjusted to redox equilibrium
      Specific Conductance (µS/cm, 100°C)  = 72
                          Density (g/cm³)  =   0.95836
                               Volume (L)  =   1.04346
                        Activity of water  =   1.000
                 Ionic strength (mol/kgw)  =   2.342e-04
                       Mass of water (kg)  =   1.000e+00
                 Total alkalinity (eq/kg)  =   1.611e-04
                       Total CO2 (mol/kg)  =   7.769e-05
                         Temperature (°C)  = 100.00
                  Electrical balance (eq)  =  -5.690e-06
 Percent error, 100*(Cat-|An|)/(Cat+|An|)  =  -1.82
                               Iterations  =  56
                                  Total H  = 1.110124e+02
                                  Total O  = 5.550646e+01

----------------------------Distribution of species----------------------------

                                               Log       Log       Log    mole V
   Species          Molality    Activity  Molality  Activity     Gamma   cm³/mol

   OH-             8.323e-05   8.152e-05    -4.080    -4.089    -0.009     -5.93
   H+              7.231e-09   7.086e-09    -8.141    -8.150    -0.009      0.00
   H2O             5.551e+01   1.000e+00     1.744    -0.000     0.000     18.80
C(-4)         1.612e-34
   CH4             1.612e-34   1.612e-34   -33.793   -33.793     0.000     41.06
C(4)          7.769e-05
   HCO3-           7.465e-05   7.313e-05    -4.127    -4.136    -0.009     24.68
   CO2             1.384e-06   1.384e-06    -5.859    -5.859     0.000     38.89
   CO3-2           7.837e-07   7.218e-07    -6.106    -6.142    -0.036    -14.13
   CaCO3           7.542e-07   7.543e-07    -6.122    -6.122     0.000    -14.43
   CaHCO3+         1.198e-07   1.174e-07    -6.922    -6.930    -0.009     10.49
   (CO2)2          1.778e-13   1.778e-13   -12.750   -12.750     0.000     77.78
Ca            7.769e-05
   Ca+2            7.681e-05   7.074e-05    -4.115    -4.150    -0.036    -19.91
   CaCO3           7.542e-07   7.543e-07    -6.122    -6.122     0.000    -14.43
   CaHCO3+         1.198e-07   1.174e-07    -6.922    -6.930    -0.009     10.49
   CaOH+           1.691e-09   1.657e-09    -8.772    -8.781    -0.009     (0)  
H(0)          1.082e-14
   H2              5.411e-15   5.411e-15   -14.267   -14.267     0.000     28.57
O(0)          0.000e+00
   O2              0.000e+00   0.000e+00   -44.507   -44.507     0.000     33.90

------------------------------Saturation indices-------------------------------

  Phase               SI** log IAP   log K(373 K,   1 atm)

  Aragonite        -1.13    -10.29   -9.17  CaCO3
  Calcite          -1.03    -10.29   -9.27  CaCO3
  CH4(g)          -30.79    -33.79   -3.00  CH4
  CO2(g)           -3.88     -5.86   -1.98  CO2
  H2(g)           -11.17    -14.27   -3.10  H2
  H2O(g)           -0.00     -0.00    0.00  H2O
  O2(g)           -41.39    -44.51   -3.11  O2

**For a gas, SI = log10(fugacity). Fugacity = pressure * phi / 1 atm.
  For ideal gases, phi = 1.

Reaction step 10.

Using solution 2.	
Using kinetics 2.	

Kinetics 2.	

	Time step: 1.10452e+07 seconds  (Incremented time: 1.10452e+08 seconds)

	Rate name       Delta Moles Total Moles   Reactant        Coefficient

	Calcite          -6.935e-06   9.154e-04   CaCO3                     1

-----------------------------Solution composition------------------------------

	Elements           Molality       Moles

	C                 8.463e-05   8.462e-05
	Ca                8.463e-05   8.462e-05

----------------------------Description of solution----------------------------

                                       pH  =   8.182      Charge balance
                                       pe  =  -2.854      Adjusted to redox equilibrium
      Specific Conductance (µS/cm, 100°C)  = 78
                          Density (g/cm³)  =   0.95836
                               Volume (L)  =   1.04346
                        Activity of water  =   1.000
                 Ionic strength (mol/kgw)  =   2.545e-04
                       Mass of water (kg)  =   1.000e+00
                 Total alkalinity (eq/kg)  =   1.749e-04
                       Total CO2 (mol/kg)  =   8.463e-05
                         Temperature (°C)  = 100.00
                  Electrical balance (eq)  =  -5.690e-06
 Percent error, 100*(Cat-|An|)/(Cat+|An|)  =  -1.67
                               Iterations  =  18
                                  Total H  = 1.110124e+02
                                  Total O  = 5.550648e+01

----------------------------Distribution of species----------------------------

                                               Log       Log       Log    mole V
   Species          Molality    Activity  Molality  Activity     Gamma   cm³/mol

   OH-             8.983e-05   8.791e-05    -4.047    -4.056    -0.009     -5.93
   H+              6.711e-09   6.571e-09    -8.173    -8.182    -0.009      0.00
   H2O             5.551e+01   1.000e+00     1.744    -0.000     0.000     18.80
C(-4)         1.029e-33
   CH4             1.029e-33   1.029e-33   -32.987   -32.987     0.000     41.06
C(4)          8.463e-05
   HCO3-           8.121e-05   7.949e-05    -4.090    -4.100    -0.009     24.68
   CO2             1.395e-06   1.395e-06    -5.855    -5.855     0.000     38.89
   CaCO3           9.581e-07   9.581e-07    -6.019    -6.019     0.000    -14.43
   CO3-2           9.218e-07   8.461e-07    -6.035    -6.073    -0.037    -14.13
   CaHCO3+         1.412e-07   1.383e-07    -6.850    -6.859    -0.009     10.50
   (CO2)2          1.806e-13   1.806e-13   -12.743   -12.743     0.000     77.78
Ca            8.463e-05
   Ca+2            8.352e-05   7.666e-05    -4.078    -4.115    -0.037    -19.91
   CaCO3           9.581e-07   9.581e-07    -6.019    -6.019     0.000    -14.43
   CaHCO3+         1.412e-07   1.383e-07    -6.850    -6.859    -0.009     10.50
   CaOH+           1.978e-09   1.936e-09    -8.704    -8.713    -0.009     (0)  
H(0)          1.717e-14
   H2              8.584e-15   8.584e-15   -14.066   -14.066     0.000     28.57
O(0)          0.000e+00
   O2              0.000e+00   0.000e+00   -44.908   -44.908     0.000     33.90

------------------------------Saturation indices-------------------------------

  Phase               SI** log IAP   log K(373 K,   1 atm)

  Aragonite        -1.02    -10.19   -9.17  CaCO3
  Calcite          -0.92    -10.19   -9.27  CaCO3
  CH4(g)          -29.98    -32.99   -3.00  CH4
  CO2(g)           -3.88     -5.86   -1.98  CO2
  H2(g)           -10.97    -14.07   -3.10  H2
  H2O(g)           -0.00     -0.00    0.00  H2O
  O2(g)           -41.79    -44.91   -3.11  O2

**For a gas, SI = log10(fugacity). Fugacity = pressure * phi / 1 atm.
  For ideal gases, phi = 1.

Reaction step 11.

Using solution 2.	
Using kinetics 2.	

Kinetics 2.	

	Time step: 1.10452e+07 seconds  (Incremented time: 1.21497e+08 seconds)

	Rate name       Delta Moles Total Moles   Reactant        Coefficient

	Calcite          -6.564e-06   9.088e-04   CaCO3                     1

-----------------------------Solution composition------------------------------

	Elements           Molality       Moles

	C                 9.119e-05   9.119e-05
	Ca                9.119e-05   9.119e-05

----------------------------Description of solution----------------------------

                                       pH  =   8.211      Charge balance
                                       pe  =  -3.116      Adjusted to redox equilibrium
      Specific Conductance (µS/cm, 100°C)  = 83
                          Density (g/cm³)  =   0.95836
                               Volume (L)  =   1.04346
                        Activity of water  =   1.000
                 Ionic strength (mol/kgw)  =   2.736e-04
                       Mass of water (kg)  =   1.000e+00
                 Total alkalinity (eq/kg)  =   1.881e-04
                       Total CO2 (mol/kg)  =   9.119e-05
                         Temperature (°C)  = 100.00
                  Electrical balance (eq)  =  -5.690e-06
 Percent error, 100*(Cat-|An|)/(Cat+|An|)  =  -1.56
                               Iterations  =  17
                                  Total H  = 1.110124e+02
                                  Total O  = 5.550650e+01

----------------------------Distribution of species----------------------------

                                               Log       Log       Log    mole V
   Species          Molality    Activity  Molality  Activity     Gamma   cm³/mol

   OH-             9.604e-05   9.392e-05    -4.018    -4.027    -0.010     -5.93
   H+              6.286e-09   6.151e-09    -8.202    -8.211    -0.009      0.00
   H2O             5.551e+01   1.000e+00     1.744    -0.000     0.000     18.80
C(-4)         7.712e-32
   CH4             7.712e-32   7.713e-32   -31.113   -31.113     0.000     41.06
C(4)          9.119e-05
   HCO3-           8.738e-05   8.546e-05    -4.059    -4.068    -0.010     24.68
   CO2             1.404e-06   1.404e-06    -5.853    -5.853     0.000     38.89
   CaCO3           1.180e-06   1.180e-06    -5.928    -5.928     0.000    -14.43
   CO3-2           1.062e-06   9.719e-07    -5.974    -6.012    -0.039    -14.12
   CaHCO3+         1.630e-07   1.594e-07    -6.788    -6.797    -0.010     10.50
   (CO2)2          1.829e-13   1.829e-13   -12.738   -12.738     0.000     77.78
Ca            9.119e-05
   Ca+2            8.984e-05   8.221e-05    -4.047    -4.085    -0.039    -19.90
   CaCO3           1.180e-06   1.180e-06    -5.928    -5.928     0.000    -14.43
   CaHCO3+         1.630e-07   1.594e-07    -6.788    -6.797    -0.010     10.50
   CaOH+           2.268e-09   2.218e-09    -8.644    -8.654    -0.010     (0)  
H(0)          5.043e-14
   H2              2.521e-14   2.522e-14   -13.598   -13.598     0.000     28.57
O(0)          0.000e+00
   O2              0.000e+00   0.000e+00   -45.844   -45.844     0.000     33.90

------------------------------Saturation indices-------------------------------

  Phase               SI** log IAP   log K(373 K,   1 atm)

  Aragonite        -0.93    -10.10   -9.17  CaCO3
  Calcite          -0.83    -10.10   -9.27  CaCO3
  CH4(g)          -28.11    -31.11   -3.00  CH4
  CO2(g)           -3.87     -5.85   -1.98  CO2
  H2(g)           -10.50    -13.60   -3.10  H2
  H2O(g)           -0.00     -0.00    0.00  H2O
  O2(g)           -42.73    -45.84   -3.11  O2

**For a gas, SI = log10(fugacity). Fugacity = pressure * phi / 1 atm.
  For ideal gases, phi = 1.

Reaction step 12.

Using solution 2.	
Using kinetics 2.	

Kinetics 2.	

	Time step: 1.10452e+07 seconds  (Incremented time: 1.32542e+08 seconds)

	Rate name       Delta Moles Total Moles   Reactant        Coefficient

	Calcite          -6.198e-06   9.026e-04   CaCO3                     1

-----------------------------Solution composition------------------------------

	Elements           Molality       Moles

	C                 9.739e-05   9.739e-05
	Ca                9.739e-05   9.739e-05

----------------------------Description of solution----------------------------

                                       pH  =   8.236      Charge balance
                                       pe  =  -3.143      Adjusted to redox equilibrium
      Specific Conductance (µS/cm, 100°C)  = 89
                          Density (g/cm³)  =   0.95836
                               Volume (L)  =   1.04346
                        Activity of water  =   1.000
                 Ionic strength (mol/kgw)  =   2.916e-04
                       Mass of water (kg)  =   1.000e+00
                 Total alkalinity (eq/kg)  =   2.005e-04
                       Total CO2 (mol/kg)  =   9.739e-05
                         Temperature (°C)  = 100.00
                  Electrical balance (eq)  =  -5.690e-06
 Percent error, 100*(Cat-|An|)/(Cat+|An|)  =  -1.46
                               Iterations  =  17
                                  Total H  = 1.110124e+02
                                  Total O  = 5.550651e+01

----------------------------Distribution of species----------------------------

                                               Log       Log       Log    mole V
   Species          Molality    Activity  Molality  Activity     Gamma   cm³/mol

   OH-             1.019e-04   9.954e-05    -3.992    -4.002    -0.010     -5.92
   H+              5.935e-09   5.803e-09    -8.227    -8.236    -0.010      0.00
   H2O             5.551e+01   1.000e+00     1.744    -0.000     0.000     18.80
C(-4)         7.913e-32
   CH4             7.913e-32   7.914e-32   -31.102   -31.102     0.000     41.06
C(4)          9.739e-05
   HCO3-           9.317e-05   9.106e-05    -4.031    -4.041    -0.010     24.68
   CaCO3           1.417e-06   1.417e-06    -5.849    -5.849     0.000    -14.43
   CO2             1.411e-06   1.411e-06    -5.850    -5.850     0.000     38.89
   CO3-2           1.203e-06   1.098e-06    -5.920    -5.960    -0.040    -14.12
   CaHCO3+         1.847e-07   1.806e-07    -6.733    -6.743    -0.010     10.50
   (CO2)2          1.849e-13   1.849e-13   -12.733   -12.733     0.000     77.78
Ca            9.739e-05
   Ca+2            9.578e-05   8.740e-05    -4.019    -4.058    -0.040    -19.90
   CaCO3           1.417e-06   1.417e-06    -5.849    -5.849     0.000    -14.43
   CaHCO3+         1.847e-07   1.806e-07    -6.733    -6.743    -0.010     10.50
   CaOH+           2.558e-09   2.499e-09    -8.592    -8.602    -0.010     (0)  
H(0)          5.068e-14
   H2              2.534e-14   2.534e-14   -13.596   -13.596     0.000     28.57
O(0)          0.000e+00
   O2              0.000e+00   0.000e+00   -45.848   -45.848     0.000     33.90

------------------------------Saturation indices-------------------------------

  Phase               SI** log IAP   log K(373 K,   1 atm)

  Aragonite        -0.85    -10.02   -9.17  CaCO3
  Calcite          -0.75    -10.02   -9.27  CaCO3
  CH4(g)          -28.10    -31.10   -3.00  CH4
  CO2(g)           -3.87     -5.85   -1.98  CO2
  H2(g)           -10.50    -13.60   -3.10  H2
  H2O(g)           -0.01     -0.00    0.00  H2O
  O2(g)           -42.73    -45.85   -3.11  O2

**For a gas, SI = log10(fugacity). Fugacity = pressure * phi / 1 atm.
  For ideal gases, phi = 1.

Reaction step 13.

Using solution 2.	
Using kinetics 2.	

Kinetics 2.	

	Time step: 1.10452e+07 seconds  (Incremented time: 1.43587e+08 seconds)

	Rate name       Delta Moles Total Moles   Reactant        Coefficient

	Calcite          -5.841e-06   8.968e-04   CaCO3                     1

-----------------------------Solution composition------------------------------

	Elements           Molality       Moles

	C                 1.032e-04   1.032e-04
	Ca                1.032e-04   1.032e-04

----------------------------Description of solution----------------------------

                                       pH  =   8.259      Charge balance
                                       pe  =  -3.124      Adjusted to redox equilibrium
      Specific Conductance (µS/cm, 100°C)  = 93
                          Density (g/cm³)  =   0.95836
                               Volume (L)  =   1.04346
                        Activity of water  =   1.000
                 Ionic strength (mol/kgw)  =   3.085e-04
                       Mass of water (kg)  =   1.000e+00
                 Total alkalinity (eq/kg)  =   2.121e-04
                       Total CO2 (mol/kg)  =   1.032e-04
                         Temperature (°C)  = 100.00
                  Electrical balance (eq)  =  -5.690e-06
 Percent error, 100*(Cat-|An|)/(Cat+|An|)  =  -1.38
                               Iterations  =  17
                                  Total H  = 1.110124e+02
                                  Total O  = 5.550653e+01

----------------------------Distribution of species----------------------------

                                               Log       Log       Log    mole V
   Species          Molality    Activity  Molality  Activity     Gamma   cm³/mol

   OH-             1.073e-04   1.048e-04    -3.969    -3.980    -0.010     -5.92
   H+              5.640e-09   5.512e-09    -8.249    -8.259    -0.010      0.00
   H2O             5.551e+01   1.000e+00     1.744    -0.000     0.000     18.80
C(-4)         3.740e-32
   CH4             3.740e-32   3.741e-32   -31.427   -31.427     0.000     41.06
C(4)          1.032e-04
   HCO3-           9.860e-05   9.631e-05    -4.006    -4.016    -0.010     24.68
   CaCO3           1.665e-06   1.665e-06    -5.779    -5.779     0.000    -14.43
   CO2             1.418e-06   1.418e-06    -5.848    -5.848     0.000     38.89
   CO3-2           1.343e-06   1.222e-06    -5.872    -5.913    -0.041    -14.11
   CaHCO3+         2.063e-07   2.016e-07    -6.685    -6.696    -0.010     10.50
   (CO2)2          1.865e-13   1.865e-13   -12.729   -12.729     0.000     77.78
Ca            1.032e-04
   Ca+2            1.014e-04   9.225e-05    -3.994    -4.035    -0.041    -19.89
   CaCO3           1.665e-06   1.665e-06    -5.779    -5.779     0.000    -14.43
   CaHCO3+         2.063e-07   2.016e-07    -6.685    -6.696    -0.010     10.50
   CaOH+           2.844e-09   2.778e-09    -8.546    -8.556    -0.010     (0)  
H(0)          4.198e-14
   H2              2.099e-14   2.099e-14   -13.678   -13.678     0.000     28.57
O(0)          0.000e+00
   O2              0.000e+00   0.000e+00   -45.685   -45.685     0.000     33.90

------------------------------Saturation indices-------------------------------

  Phase               SI** log IAP   log K(373 K,   1 atm)

  Aragonite        -0.78     -9.95   -9.17  CaCO3
  Calcite          -0.68     -9.95   -9.27  CaCO3
  CH4(g)          -28.42    -31.43   -3.00  CH4
  CO2(g)           -3.87     -5.85   -1.98  CO2
  H2(g)           -10.58    -13.68   -3.10  H2
  H2O(g)           -0.01     -0.00    0.00  H2O
  O2(g)           -42.57    -45.68   -3.11  O2

**For a gas, SI = log10(fugacity). Fugacity = pressure * phi / 1 atm.
  For ideal gases, phi = 1.

Reaction step 14.

Using solution 2.	
Using kinetics 2.	

Kinetics 2.	

	Time step: 1.10452e+07 seconds  (Incremented time: 1.54632e+08 seconds)

	Rate name       Delta Moles Total Moles   Reactant        Coefficient

	Calcite          -5.494e-06   8.913e-04   CaCO3                     1

-----------------------------Solution composition------------------------------

	Elements           Molality       Moles

	C                 1.087e-04   1.087e-04
	Ca                1.087e-04   1.087e-04

----------------------------Description of solution----------------------------

                                       pH  =   8.279      Charge balance
                                       pe  =  -3.085      Adjusted to redox equilibrium
      Specific Conductance (µS/cm, 100°C)  = 98
                          Density (g/cm³)  =   0.95836
                               Volume (L)  =   1.04346
                        Activity of water  =   1.000
                 Ionic strength (mol/kgw)  =   3.243e-04
                       Mass of water (kg)  =   1.000e+00
                 Total alkalinity (eq/kg)  =   2.231e-04
                       Total CO2 (mol/kg)  =   1.087e-04
                         Temperature (°C)  = 100.00
                  Electrical balance (eq)  =  -5.690e-06
 Percent error, 100*(Cat-|An|)/(Cat+|An|)  =  -1.32
                               Iterations  =  16
                                  Total H  = 1.110124e+02
                                  Total O  = 5.550655e+01

----------------------------Distribution of species----------------------------

                                               Log       Log       Log    mole V
   Species          Molality    Activity  Molality  Activity     Gamma   cm³/mol

   OH-             1.124e-04   1.097e-04    -3.949    -3.960    -0.011     -5.92
   H+              5.390e-09   5.265e-09    -8.268    -8.279    -0.010      0.00
   H2O             5.551e+01   1.000e+00     1.744    -0.000     0.000     18.80
C(-4)         1.252e-32
   CH4             1.252e-32   1.253e-32   -31.902   -31.902     0.000     41.06
C(4)          1.087e-04
   HCO3-           1.037e-04   1.012e-04    -3.984    -3.995    -0.010     24.68
   CaCO3           1.922e-06   1.922e-06    -5.716    -5.716     0.000    -14.43
   CO3-2           1.481e-06   1.345e-06    -5.830    -5.871    -0.042    -14.11
   CO2             1.423e-06   1.423e-06    -5.847    -5.847     0.000     38.89
   CaHCO3+         2.276e-07   2.222e-07    -6.643    -6.653    -0.010     10.50
   (CO2)2          1.879e-13   1.879e-13   -12.726   -12.726     0.000     77.78
Ca            1.087e-04
   Ca+2            1.066e-04   9.677e-05    -3.972    -4.014    -0.042    -19.89
   CaCO3           1.922e-06   1.922e-06    -5.716    -5.716     0.000    -14.43
   CaHCO3+         2.276e-07   2.222e-07    -6.643    -6.653    -0.010     10.50
   CaOH+           3.126e-09   3.051e-09    -8.505    -8.516    -0.011     (0)  
H(0)          3.190e-14
   H2              1.595e-14   1.595e-14   -13.797   -13.797     0.000     28.57
O(0)          0.000e+00
   O2              0.000e+00   0.000e+00   -45.446   -45.446     0.000     33.90

------------------------------Saturation indices-------------------------------

  Phase               SI** log IAP   log K(373 K,   1 atm)

  Aragonite        -0.72     -9.89   -9.17  CaCO3
  Calcite          -0.62     -9.89   -9.27  CaCO3
  CH4(g)          -28.90    -31.90   -3.00  CH4
  CO2(g)           -3.87     -5.85   -1.98  CO2
  H2(g)           -10.70    -13.80   -3.10  H2
  H2O(g)           -0.01     -0.00    0.00  H2O
  O2(g)           -42.33    -45.45   -3.11  O2

**For a gas, SI = log10(fugacity). Fugacity = pressure * phi / 1 atm.
  For ideal gases, phi = 1.

Reaction step 15.

Using solution 2.	
Using kinetics 2.	

Kinetics 2.	

	Time step: 1.10452e+07 seconds  (Incremented time: 1.65677e+08 seconds)

	Rate name       Delta Moles Total Moles   Reactant        Coefficient

	Calcite          -5.160e-06   8.861e-04   CaCO3                     1

-----------------------------Solution composition------------------------------

	Elements           Molality       Moles

	C                 1.139e-04   1.139e-04
	Ca                1.139e-04   1.139e-04

----------------------------Description of solution----------------------------

                                       pH  =   8.296      Charge balance
                                       pe  =  -3.085      Adjusted to redox equilibrium
      Specific Conductance (µS/cm, 100°C)  = 102
                          Density (g/cm³)  =   0.95836
                               Volume (L)  =   1.04346
                        Activity of water  =   1.000
                 Ionic strength (mol/kgw)  =   3.391e-04
                       Mass of water (kg)  =   1.000e+00
                 Total alkalinity (eq/kg)  =   2.335e-04
                       Total CO2 (mol/kg)  =   1.139e-04
                         Temperature (°C)  = 100.00
                  Electrical balance (eq)  =  -5.690e-06
 Percent error, 100*(Cat-|An|)/(Cat+|An|)  =  -1.26
                               Iterations  =  16
                                  Total H  = 1.110124e+02
                                  Total O  = 5.550656e+01

----------------------------Distribution of species----------------------------

                                               Log       Log       Log    mole V
   Species          Molality    Activity  Molality  Activity     Gamma   cm³/mol

   OH-             1.172e-04   1.143e-04    -3.931    -3.942    -0.011     -5.92
   H+              5.176e-09   5.053e-09    -8.286    -8.296    -0.010      0.00
   H2O             5.551e+01   1.000e+00     1.744    -0.000     0.000     18.80
C(-4)         9.136e-33
   CH4             9.136e-33   9.137e-33   -32.039   -32.039     0.000     41.06
C(4)          1.139e-04
   HCO3-           1.084e-04   1.058e-04    -3.965    -3.976    -0.011     24.68
   CaCO3           2.184e-06   2.184e-06    -5.661    -5.661     0.000    -14.43
   CO3-2           1.616e-06   1.464e-06    -5.792    -5.834    -0.043    -14.11
   CO2             1.427e-06   1.427e-06    -5.845    -5.845     0.000     38.89
   CaHCO3+         2.484e-07   2.424e-07    -6.605    -6.616    -0.011     10.50
   (CO2)2          1.891e-13   1.891e-13   -12.723   -12.723     0.000     77.78
Ca            1.139e-04
   Ca+2            1.114e-04   1.010e-04    -3.953    -3.996    -0.043    -19.89
   CaCO3           2.184e-06   2.184e-06    -5.661    -5.661     0.000    -14.43
   CaHCO3+         2.484e-07   2.424e-07    -6.605    -6.616    -0.011     10.50
   CaOH+           3.400e-09   3.317e-09    -8.469    -8.479    -0.011     (0)  
H(0)          2.946e-14
   H2              1.473e-14   1.473e-14   -13.832   -13.832     0.000     28.57
O(0)          0.000e+00
   O2              0.000e+00   0.000e+00   -45.377   -45.377     0.000     33.90

------------------------------Saturation indices-------------------------------

  Phase               SI** log IAP   log K(373 K,   1 atm)

  Aragonite        -0.66     -9.83   -9.17  CaCO3
  Calcite          -0.56     -9.83   -9.27  CaCO3
  CH4(g)          -29.03    -32.04   -3.00  CH4
  CO2(g)           -3.87     -5.85   -1.98  CO2
  H2(g)           -10.73    -13.83   -3.10  H2
  H2O(g)           -0.01     -0.00    0.00  H2O
  O2(g)           -42.26    -45.38   -3.11  O2

**For a gas, SI = log10(fugacity). Fugacity = pressure * phi / 1 atm.
  For ideal gases, phi = 1.

Reaction step 16.

Using solution 2.	
Using kinetics 2.	

Kinetics 2.	

	Time step: 1.10452e+07 seconds  (Incremented time: 1.76723e+08 seconds)

	Rate name       Delta Moles Total Moles   Reactant        Coefficient

	Calcite          -4.839e-06   8.813e-04   CaCO3                     1

-----------------------------Solution composition------------------------------

	Elements           Molality       Moles

	C                 1.187e-04   1.187e-04
	Ca                1.187e-04   1.187e-04

----------------------------Description of solution----------------------------

                                       pH  =   8.312      Charge balance
                                       pe  =  -3.135      Adjusted to redox equilibrium
      Specific Conductance (µS/cm, 100°C)  = 106
                          Density (g/cm³)  =   0.95836
                               Volume (L)  =   1.04346
                        Activity of water  =   1.000
                 Ionic strength (mol/kgw)  =   3.529e-04
                       Mass of water (kg)  =   1.000e+00
                 Total alkalinity (eq/kg)  =   2.431e-04
                       Total CO2 (mol/kg)  =   1.187e-04
                         Temperature (°C)  = 100.00
                  Electrical balance (eq)  =  -5.690e-06
 Percent error, 100*(Cat-|An|)/(Cat+|An|)  =  -1.21
                               Iterations  =  16
                                  Total H  = 1.110124e+02
                                  Total O  = 5.550658e+01

----------------------------Distribution of species----------------------------

                                               Log       Log       Log    mole V
   Species          Molality    Activity  Molality  Activity     Gamma   cm³/mol

   OH-             1.216e-04   1.186e-04    -3.915    -3.926    -0.011     -5.92
   H+              4.992e-09   4.871e-09    -8.302    -8.312    -0.011      0.00
   H2O             5.551e+01   1.000e+00     1.744    -0.000     0.000     18.80
C(-4)         1.697e-32
   CH4             1.697e-32   1.697e-32   -31.770   -31.770     0.000     41.06
C(4)          1.187e-04
   HCO3-           1.128e-04   1.100e-04    -3.948    -3.958    -0.011     24.69
   CaCO3           2.448e-06   2.449e-06    -5.611    -5.611     0.000    -14.43
   CO3-2           1.747e-06   1.580e-06    -5.758    -5.801    -0.044    -14.10
   CO2             1.431e-06   1.431e-06    -5.844    -5.844     0.000     38.89
   CaHCO3+         2.685e-07   2.619e-07    -6.571    -6.582    -0.011     10.50
   (CO2)2          1.901e-13   1.901e-13   -12.721   -12.721     0.000     77.78
Ca            1.187e-04
   Ca+2            1.160e-04   1.049e-04    -3.936    -3.979    -0.044    -19.88
   CaCO3           2.448e-06   2.449e-06    -5.611    -5.611     0.000    -14.43
   CaHCO3+         2.685e-07   2.619e-07    -6.571    -6.582    -0.011     10.50
   CaOH+           3.666e-09   3.575e-09    -8.436    -8.447    -0.011     (0)  
H(0)          3.437e-14
   H2              1.718e-14   1.719e-14   -13.765   -13.765     0.000     28.57
O(0)          0.000e+00
   O2              0.000e+00   0.000e+00   -45.511   -45.511     0.000     33.90

------------------------------Saturation indices-------------------------------

  Phase               SI** log IAP   log K(373 K,   1 atm)

  Aragonite        -0.61     -9.78   -9.17  CaCO3
  Calcite          -0.51     -9.78   -9.27  CaCO3
  CH4(g)          -28.77    -31.77   -3.00  CH4
  CO2(g)           -3.87     -5.84   -1.98  CO2
  H2(g)           -10.66    -13.76   -3.10  H2
  H2O(g)           -0.01     -0.00    0.00  H2O
  O2(g)           -42.40    -45.51   -3.11  O2

**For a gas, SI = log10(fugacity). Fugacity = pressure * phi / 1 atm.
  For ideal gases, phi = 1.

Reaction step 17.

Using solution 2.	
Using kinetics 2.	

Kinetics 2.	

	Time step: 1.10452e+07 seconds  (Incremented time: 1.87768e+08 seconds)

	Rate name       Delta Moles Total Moles   Reactant        Coefficient

	Calcite          -4.533e-06   8.767e-04   CaCO3                     1

-----------------------------Solution composition------------------------------

	Elements           Molality       Moles

	C                 1.233e-04   1.233e-04
	Ca                1.233e-04   1.233e-04

----------------------------Description of solution----------------------------

                                       pH  =   8.327      Charge balance
                                       pe  =  -3.110      Adjusted to redox equilibrium
      Specific Conductance (µS/cm, 100°C)  = 110
                          Density (g/cm³)  =   0.95836
                               Volume (L)  =   1.04346
                        Activity of water  =   1.000
                 Ionic strength (mol/kgw)  =   3.658e-04
                       Mass of water (kg)  =   1.000e+00
                 Total alkalinity (eq/kg)  =   2.522e-04
                       Total CO2 (mol/kg)  =   1.233e-04
                         Temperature (°C)  = 100.00
                  Electrical balance (eq)  =  -5.690e-06
 Percent error, 100*(Cat-|An|)/(Cat+|An|)  =  -1.17
                               Iterations  =  16
                                  Total H  = 1.110124e+02
                                  Total O  = 5.550659e+01

----------------------------Distribution of species----------------------------

                                               Log       Log       Log    mole V
   Species          Molality    Activity  Molality  Activity     Gamma   cm³/mol

   OH-             1.258e-04   1.226e-04    -3.900    -3.912    -0.011     -5.92
   H+              4.832e-09   4.712e-09    -8.316    -8.327    -0.011      0.00
   H2O             5.551e+01   1.000e+00     1.744    -0.000     0.000     18.80
C(-4)         8.299e-33
   CH4             8.299e-33   8.299e-33   -32.081   -32.081     0.000     41.06
C(4)          1.233e-04
   HCO3-           1.169e-04   1.140e-04    -3.932    -3.943    -0.011     24.69
   CaCO3           2.713e-06   2.713e-06    -5.567    -5.566     0.000    -14.43
   CO3-2           1.874e-06   1.692e-06    -5.727    -5.772    -0.044    -14.10
   CO2             1.435e-06   1.435e-06    -5.843    -5.843     0.000     38.89
   CaHCO3+         2.880e-07   2.808e-07    -6.541    -6.552    -0.011     10.50
   (CO2)2          1.910e-13   1.910e-13   -12.719   -12.719     0.000     77.78
Ca            1.233e-04
   Ca+2            1.202e-04   1.086e-04    -3.920    -3.964    -0.044    -19.88
   CaCO3           2.713e-06   2.713e-06    -5.567    -5.566     0.000    -14.43
   CaHCO3+         2.880e-07   2.808e-07    -6.541    -6.552    -0.011     10.50
   CaOH+           3.923e-09   3.823e-09    -8.406    -8.418    -0.011     (0)  
H(0)          2.872e-14
   H2              1.436e-14   1.436e-14   -13.843   -13.843     0.000     28.57
O(0)          0.000e+00
   O2              0.000e+00   0.000e+00   -45.355   -45.355     0.000     33.90

------------------------------Saturation indices-------------------------------

  Phase               SI** log IAP   log K(373 K,   1 atm)

  Aragonite        -0.57     -9.74   -9.17  CaCO3
  Calcite          -0.47     -9.74   -9.27  CaCO3
  CH4(g)          -29.08    -32.08   -3.00  CH4
  CO2(g)           -3.86     -5.84   -1.98  CO2
  H2(g)           -10.74    -13.84   -3.10  H2
  H2O(g)           -0.01     -0.00    0.00  H2O
  O2(g)           -42.24    -45.36   -3.11  O2

**For a gas, SI = log10(fugacity). Fugacity = pressure * phi / 1 atm.
  For ideal gases, phi = 1.

Reaction step 18.

Using solution 2.	
Using kinetics 2.	

Kinetics 2.	

	Time step: 1.10452e+07 seconds  (Incremented time: 1.98813e+08 seconds)

	Rate name       Delta Moles Total Moles   Reactant        Coefficient

	Calcite          -4.241e-06   8.725e-04   CaCO3                     1

-----------------------------Solution composition------------------------------

	Elements           Molality       Moles

	C                 1.275e-04   1.275e-04
	Ca                1.275e-04   1.275e-04

----------------------------Description of solution----------------------------

                                       pH  =   8.340      Charge balance
                                       pe  =  -3.005      Adjusted to redox equilibrium
      Specific Conductance (µS/cm, 100°C)  = 114
                          Density (g/cm³)  =   0.95836
                               Volume (L)  =   1.04346
                        Activity of water  =   1.000
                 Ionic strength (mol/kgw)  =   3.778e-04
                       Mass of water (kg)  =   1.000e+00
                 Total alkalinity (eq/kg)  =   2.607e-04
                       Total CO2 (mol/kg)  =   1.275e-04
                         Temperature (°C)  = 100.00
                  Electrical balance (eq)  =  -5.690e-06
 Percent error, 100*(Cat-|An|)/(Cat+|An|)  =  -1.13
                               Iterations  =  16
                                  Total H  = 1.110124e+02
                                  Total O  = 5.550660e+01

----------------------------Distribution of species----------------------------

                                               Log       Log       Log    mole V
   Species          Molality    Activity  Molality  Activity     Gamma   cm³/mol

   OH-             1.297e-04   1.263e-04    -3.887    -3.899    -0.011     -5.92
   H+              4.692e-09   4.574e-09    -8.329    -8.340    -0.011      0.00
   H2O             5.551e+01   1.000e+00     1.744    -0.000     0.000     18.80
C(-4)         9.410e-34
   CH4             9.410e-34   9.411e-34   -33.026   -33.026     0.000     41.06
C(4)          1.275e-04
   HCO3-           1.208e-04   1.177e-04    -3.918    -3.929    -0.011     24.69
   CaCO3           2.976e-06   2.976e-06    -5.526    -5.526     0.000    -14.43
   CO3-2           1.996e-06   1.800e-06    -5.700    -5.745    -0.045    -14.10
   CO2             1.438e-06   1.438e-06    -5.842    -5.842     0.000     38.89
   CaHCO3+         3.068e-07   2.989e-07    -6.513    -6.524    -0.011     10.50
   (CO2)2          1.918e-13   1.918e-13   -12.717   -12.717     0.000     77.78
Ca            1.275e-04
   Ca+2            1.242e-04   1.120e-04    -3.906    -3.951    -0.045    -19.88
   CaCO3           2.976e-06   2.976e-06    -5.526    -5.526     0.000    -14.43
   CaHCO3+         3.068e-07   2.989e-07    -6.513    -6.524    -0.011     10.50
   CaOH+           4.170e-09   4.062e-09    -8.380    -8.391    -0.011     (0)  
H(0)          1.666e-14
   H2              8.330e-15   8.331e-15   -14.079   -14.079     0.000     28.57
O(0)          0.000e+00
   O2              0.000e+00   0.000e+00   -44.882   -44.882     0.000     33.90

------------------------------Saturation indices-------------------------------

  Phase               SI** log IAP   log K(373 K,   1 atm)

  Aragonite        -0.53     -9.70   -9.17  CaCO3
  Calcite          -0.43     -9.70   -9.27  CaCO3
  CH4(g)          -30.02    -33.03   -3.00  CH4
  CO2(g)           -3.86     -5.84   -1.98  CO2
  H2(g)           -10.98    -14.08   -3.10  H2
  H2O(g)           -0.01     -0.00    0.00  H2O
  O2(g)           -41.77    -44.88   -3.11  O2

**For a gas, SI = log10(fugacity). Fugacity = pressure * phi / 1 atm.
  For ideal gases, phi = 1.

Reaction step 19.

Using solution 2.	
Using kinetics 2.	

Kinetics 2.	

	Time step: 1.10452e+07 seconds  (Incremented time: 2.09858e+08 seconds)

	Rate name       Delta Moles Total Moles   Reactant        Coefficient

	Calcite          -3.965e-06   8.685e-04   CaCO3                     1

-----------------------------Solution composition------------------------------

	Elements           Molality       Moles

	C                 1.315e-04   1.315e-04
	Ca                1.315e-04   1.315e-04

----------------------------Description of solution----------------------------

                                       pH  =   8.351      Charge balance
                                       pe  =  -3.093      Adjusted to redox equilibrium
      Specific Conductance (µS/cm, 100°C)  = 117
                          Density (g/cm³)  =   0.95836
                               Volume (L)  =   1.04346
                        Activity of water  =   1.000
                 Ionic strength (mol/kgw)  =   3.890e-04
                       Mass of water (kg)  =   1.000e+00
                 Total alkalinity (eq/kg)  =   2.686e-04
                       Total CO2 (mol/kg)  =   1.315e-04
                         Temperature (°C)  = 100.00
                  Electrical balance (eq)  =  -5.690e-06
 Percent error, 100*(Cat-|An|)/(Cat+|An|)  =  -1.10
                               Iterations  =  16
                                  Total H  = 1.110124e+02
                                  Total O  = 5.550662e+01

----------------------------Distribution of species----------------------------

                                               Log       Log       Log    mole V
   Species          Molality    Activity  Molality  Activity     Gamma   cm³/mol

   OH-             1.332e-04   1.297e-04    -3.875    -3.887    -0.012     -5.92
   H+              4.568e-09   4.453e-09    -8.340    -8.351    -0.011      0.00
   H2O             5.551e+01   1.000e+00     1.744    -0.000     0.000     18.80
C(-4)         3.851e-33
   CH4             3.851e-33   3.851e-33   -32.414   -32.414     0.000     41.06
C(4)          1.315e-04
   HCO3-           1.243e-04   1.211e-04    -3.905    -3.917    -0.011     24.69
   CaCO3           3.235e-06   3.235e-06    -5.490    -5.490     0.000    -14.43
   CO3-2           2.114e-06   1.903e-06    -5.675    -5.721    -0.046    -14.10
   CO2             1.440e-06   1.440e-06    -5.842    -5.842     0.000     38.89
   CaHCO3+         3.247e-07   3.163e-07    -6.488    -6.500    -0.011     10.50
   (CO2)2          1.925e-13   1.925e-13   -12.716   -12.716     0.000     77.78
Ca            1.315e-04
   Ca+2            1.279e-04   1.151e-04    -3.893    -3.939    -0.046    -19.88
   CaCO3           3.235e-06   3.235e-06    -5.490    -5.490     0.000    -14.43
   CaHCO3+         3.247e-07   3.163e-07    -6.488    -6.500    -0.011     10.50
   CaOH+           4.406e-09   4.291e-09    -8.356    -8.367    -0.012     (0)  
H(0)          2.368e-14
   H2              1.184e-14   1.184e-14   -13.927   -13.927     0.000     28.57
O(0)          0.000e+00
   O2              0.000e+00   0.000e+00   -45.188   -45.187     0.000     33.90

------------------------------Saturation indices-------------------------------

  Phase               SI** log IAP   log K(373 K,   1 atm)

  Aragonite        -0.49     -9.66   -9.17  CaCO3
  Calcite          -0.39     -9.66   -9.27  CaCO3
  CH4(g)          -29.41    -32.41   -3.00  CH4
  CO2(g)           -3.86     -5.84   -1.98  CO2
  H2(g)           -10.83    -13.93   -3.10  H2
  H2O(g)           -0.01     -0.00    0.00  H2O
  O2(g)           -42.07    -45.19   -3.11  O2

**For a gas, SI = log10(fugacity). Fugacity = pressure * phi / 1 atm.
  For ideal gases, phi = 1.

Reaction step 20.

Using solution 2.	
Using kinetics 2.	

Kinetics 2.	

	Time step: 1.10452e+07 seconds  (Incremented time: 2.20903e+08 seconds)

	Rate name       Delta Moles Total Moles   Reactant        Coefficient

	Calcite          -3.703e-06   8.648e-04   CaCO3                     1

-----------------------------Solution composition------------------------------

	Elements           Molality       Moles

	C                 1.352e-04   1.352e-04
	Ca                1.352e-04   1.352e-04

----------------------------Description of solution----------------------------

                                       pH  =   8.362      Charge balance
                                       pe  =  -2.894      Adjusted to redox equilibrium
      Specific Conductance (µS/cm, 100°C)  = 120
                          Density (g/cm³)  =   0.95836
                               Volume (L)  =   1.04346
                        Activity of water  =   1.000
                 Ionic strength (mol/kgw)  =   3.994e-04
                       Mass of water (kg)  =   1.000e+00
                 Total alkalinity (eq/kg)  =   2.760e-04
                       Total CO2 (mol/kg)  =   1.352e-04
                         Temperature (°C)  = 100.00
                  Electrical balance (eq)  =  -5.690e-06
 Percent error, 100*(Cat-|An|)/(Cat+|An|)  =  -1.07
                               Iterations  =  16
                                  Total H  = 1.110124e+02
                                  Total O  = 5.550663e+01

----------------------------Distribution of species----------------------------

                                               Log       Log       Log    mole V
   Species          Molality    Activity  Molality  Activity     Gamma   cm³/mol

   OH-             1.366e-04   1.329e-04    -3.865    -3.876    -0.012     -5.92
   H+              4.460e-09   4.345e-09    -8.351    -8.362    -0.011      0.00
   H2O             5.551e+01   1.000e+00     1.744    -0.000     0.000     18.80
C(-4)         8.128e-35
   CH4             8.128e-35   8.129e-35   -34.090   -34.090     0.000     41.06
C(4)          1.352e-04
   HCO3-           1.277e-04   1.243e-04    -3.894    -3.905    -0.012     24.69
   CaCO3           3.489e-06   3.489e-06    -5.457    -5.457     0.000    -14.43
   CO3-2           2.226e-06   2.001e-06    -5.652    -5.699    -0.046    -14.10
   CO2             1.442e-06   1.443e-06    -5.841    -5.841     0.000     38.89
   CaHCO3+         3.419e-07   3.329e-07    -6.466    -6.478    -0.012     10.50
   (CO2)2          1.931e-13   1.931e-13   -12.714   -12.714     0.000     77.78
Ca            1.352e-04
   Ca+2            1.313e-04   1.180e-04    -3.882    -3.928    -0.046    -19.88
   CaCO3           3.489e-06   3.489e-06    -5.457    -5.457     0.000    -14.43
   CaHCO3+         3.419e-07   3.329e-07    -6.466    -6.478    -0.012     10.50
   CaOH+           4.631e-09   4.508e-09    -8.334    -8.346    -0.012     (0)  
H(0)          9.024e-15
   H2              4.512e-15   4.512e-15   -14.346   -14.346     0.000     28.57
O(0)          0.000e+00
   O2              0.000e+00   0.000e+00   -44.349   -44.349     0.000     33.90

------------------------------Saturation indices-------------------------------

  Phase               SI** log IAP   log K(373 K,   1 atm)

  Aragonite        -0.46     -9.63   -9.17  CaCO3
  Calcite          -0.36     -9.63   -9.27  CaCO3
  CH4(g)          -31.09    -34.09   -3.00  CH4
  CO2(g)           -3.86     -5.84   -1.98  CO2
  H2(g)           -11.24    -14.35   -3.10  H2
  H2O(g)           -0.01     -0.00    0.00  H2O
  O2(g)           -41.23    -44.35   -3.11  O2

**For a gas, SI = log10(fugacity). Fugacity = pressure * phi / 1 atm.
  For ideal gases, phi = 1.

Reaction step 21.

Using solution 2.	
Using kinetics 2.	

Kinetics 2.	

	Time step: 1.10452e+07 seconds  (Incremented time: 2.31948e+08 seconds)

	Rate name       Delta Moles Total Moles   Reactant        Coefficient

	Calcite          -3.456e-06   8.614e-04   CaCO3                     1

-----------------------------Solution composition------------------------------

	Elements           Molality       Moles

	C                 1.386e-04   1.386e-04
	Ca                1.386e-04   1.386e-04

----------------------------Description of solution----------------------------

                                       pH  =   8.372      Charge balance
                                       pe  =  -2.553      Adjusted to redox equilibrium
      Specific Conductance (µS/cm, 100°C)  = 123
                          Density (g/cm³)  =   0.95836
                               Volume (L)  =   1.04346
                        Activity of water  =   1.000
[...]
   CaHCO3+         5.998e-07   5.818e-07    -6.222    -6.235    -0.013     10.51
   CaOH+           8.007e-09   7.762e-09    -8.097    -8.110    -0.013     (0)  
H(0)          1.579e-30
   H2              7.895e-31   7.896e-31   -30.103   -30.103     0.000     28.57
O(0)          2.922e-13
   O2              1.461e-13   1.461e-13   -12.835   -12.835     0.000     33.90

------------------------------Saturation indices-------------------------------

  Phase               SI** log IAP   log K(373 K,   1 atm)

  Aragonite        -0.10     -9.27   -9.17  CaCO3
  Calcite          -0.00     -9.27   -9.27  CaCO3
  CH4(g)          -94.11    -97.11   -3.00  CH4
  CO2(g)           -3.86     -5.83   -1.98  CO2
  H2(g)           -27.00    -30.10   -3.10  H2
  H2O(g)           -0.01     -0.00    0.00  H2O
  O2(g)            -9.72    -12.84   -3.11  O2

**For a gas, SI = log10(fugacity). Fugacity = pressure * phi / 1 atm.
  For ideal gases, phi = 1.

Reaction step 96.

Using solution 2.	
Using kinetics 2.	

Kinetics 2.	

	Time step: 1.10452e+07 seconds  (Incremented time: 1.06034e+09 seconds)

	Rate name       Delta Moles Total Moles   Reactant        Coefficient

	Calcite          -1.203e-08   8.158e-04   CaCO3                     1

-----------------------------Solution composition------------------------------

	Elements           Molality       Moles

	C                 1.842e-04   1.842e-04
	Ca                1.842e-04   1.842e-04

----------------------------Description of solution----------------------------

                                       pH  =   8.479      Charge balance
                                       pe  =   4.865      Adjusted to redox equilibrium
      Specific Conductance (µS/cm, 100°C)  = 159
                          Density (g/cm³)  =   0.95837
                               Volume (L)  =   1.04346
                        Activity of water  =   1.000
                 Ionic strength (mol/kgw)  =   5.342e-04
                       Mass of water (kg)  =   1.000e+00
                 Total alkalinity (eq/kg)  =   3.741e-04
                       Total CO2 (mol/kg)  =   1.842e-04
                         Temperature (°C)  = 100.00
                  Electrical balance (eq)  =  -5.690e-06
 Percent error, 100*(Cat-|An|)/(Cat+|An|)  =  -0.80
                               Iterations  =   1
                                  Total H  = 1.110124e+02
                                  Total O  = 5.550678e+01

----------------------------Distribution of species----------------------------

                                               Log       Log       Log    mole V
   Species          Molality    Activity  Molality  Activity     Gamma   cm³/mol

   OH-             1.794e-04   1.740e-04    -3.746    -3.760    -0.013     -5.91
   H+              3.421e-09   3.321e-09    -8.466    -8.479    -0.013      0.00
   H2O             5.551e+01   1.000e+00     1.744    -0.000     0.000     18.80
C(-4)         0.000e+00
   CH4             0.000e+00   0.000e+00   -97.085   -97.085     0.000     41.06
C(4)          1.842e-04
   HCO3-           1.702e-04   1.651e-04    -3.769    -3.782    -0.013     24.69
   CaCO3           7.978e-06   7.979e-06    -5.098    -5.098     0.000    -14.43
   CO3-2           3.931e-06   3.477e-06    -5.406    -5.459    -0.053    -14.07
   CO2             1.464e-06   1.464e-06    -5.834    -5.834     0.000     38.89
   CaHCO3+         5.999e-07   5.819e-07    -6.222    -6.235    -0.013     10.51
   (CO2)2          1.990e-13   1.990e-13   -12.701   -12.701     0.000     77.78
Ca            1.842e-04
   Ca+2            1.756e-04   1.553e-04    -3.755    -3.809    -0.053    -19.85
   CaCO3           7.978e-06   7.979e-06    -5.098    -5.098     0.000    -14.43
   CaHCO3+         5.999e-07   5.819e-07    -6.222    -6.235    -0.013     10.51
   CaOH+           8.008e-09   7.763e-09    -8.096    -8.110    -0.013     (0)  
H(0)          1.603e-30
   H2              8.015e-31   8.016e-31   -30.096   -30.096     0.000     28.57
O(0)          2.835e-13
   O2              1.417e-13   1.418e-13   -12.849   -12.848     0.000     33.90

------------------------------Saturation indices-------------------------------

  Phase               SI** log IAP   log K(373 K,   1 atm)

  Aragonite        -0.10     -9.27   -9.17  CaCO3
  Calcite          -0.00     -9.27   -9.27  CaCO3
  CH4(g)          -94.08    -97.09   -3.00  CH4
  CO2(g)           -3.86     -5.83   -1.98  CO2
  H2(g)           -27.00    -30.10   -3.10  H2
  H2O(g)           -0.01     -0.00    0.00  H2O
  O2(g)            -9.73    -12.85   -3.11  O2

**For a gas, SI = log10(fugacity). Fugacity = pressure * phi / 1 atm.
  For ideal gases, phi = 1.

Reaction step 97.

Using solution 2.	
Using kinetics 2.	

Kinetics 2.	

	Time step: 1.10452e+07 seconds  (Incremented time: 1.07138e+09 seconds)

	Rate name       Delta Moles Total Moles   Reactant        Coefficient

	Calcite          -1.112e-08   8.158e-04   CaCO3                     1

-----------------------------Solution composition------------------------------

	Elements           Molality       Moles

	C                 1.842e-04   1.842e-04
	Ca                1.842e-04   1.842e-04

----------------------------Description of solution----------------------------

                                       pH  =   8.479      Charge balance
                                       pe  =   4.867      Adjusted to redox equilibrium
      Specific Conductance (µS/cm, 100°C)  = 159
                          Density (g/cm³)  =   0.95837
                               Volume (L)  =   1.04346
                        Activity of water  =   1.000
                 Ionic strength (mol/kgw)  =   5.343e-04
                       Mass of water (kg)  =   1.000e+00
                 Total alkalinity (eq/kg)  =   3.741e-04
                       Total CO2 (mol/kg)  =   1.842e-04
                         Temperature (°C)  = 100.00
                  Electrical balance (eq)  =  -5.690e-06
 Percent error, 100*(Cat-|An|)/(Cat+|An|)  =  -0.80
                               Iterations  =   1
                                  Total H  = 1.110124e+02
                                  Total O  = 5.550678e+01

----------------------------Distribution of species----------------------------

                                               Log       Log       Log    mole V
   Species          Molality    Activity  Molality  Activity     Gamma   cm³/mol

   OH-             1.795e-04   1.740e-04    -3.746    -3.760    -0.013     -5.91
   H+              3.421e-09   3.321e-09    -8.466    -8.479    -0.013      0.00
   H2O             5.551e+01   1.000e+00     1.744    -0.000     0.000     18.80
C(-4)         0.000e+00
   CH4             0.000e+00   0.000e+00   -97.107   -97.107     0.000     41.06
C(4)          1.842e-04
   HCO3-           1.702e-04   1.651e-04    -3.769    -3.782    -0.013     24.69
   CaCO3           7.979e-06   7.980e-06    -5.098    -5.098     0.000    -14.43
   CO3-2           3.931e-06   3.478e-06    -5.405    -5.459    -0.053    -14.07
   CO2             1.464e-06   1.464e-06    -5.834    -5.834     0.000     38.89
   CaHCO3+         6.000e-07   5.819e-07    -6.222    -6.235    -0.013     10.51
   (CO2)2          1.990e-13   1.990e-13   -12.701   -12.701     0.000     77.78
Ca            1.842e-04
   Ca+2            1.756e-04   1.554e-04    -3.755    -3.809    -0.053    -19.85
   CaCO3           7.979e-06   7.980e-06    -5.098    -5.098     0.000    -14.43
   CaHCO3+         6.000e-07   5.819e-07    -6.222    -6.235    -0.013     10.51
   CaOH+           8.008e-09   7.764e-09    -8.096    -8.110    -0.013     (0)  
H(0)          1.583e-30
   H2              7.917e-31   7.918e-31   -30.101   -30.101     0.000     28.57
O(0)          2.906e-13
   O2              1.453e-13   1.453e-13   -12.838   -12.838     0.000     33.90

------------------------------Saturation indices-------------------------------

  Phase               SI** log IAP   log K(373 K,   1 atm)

  Aragonite        -0.10     -9.27   -9.17  CaCO3
  Calcite          -0.00     -9.27   -9.27  CaCO3
  CH4(g)          -94.10    -97.11   -3.00  CH4
  CO2(g)           -3.86     -5.83   -1.98  CO2
  H2(g)           -27.00    -30.10   -3.10  H2
  H2O(g)           -0.01     -0.00    0.00  H2O
  O2(g)            -9.72    -12.84   -3.11  O2

**For a gas, SI = log10(fugacity). Fugacity = pressure * phi / 1 atm.
  For ideal gases, phi = 1.

Reaction step 98.

Using solution 2.	
Using kinetics 2.	

Kinetics 2.	

	Time step: 1.10452e+07 seconds  (Incremented time: 1.08243e+09 seconds)

	Rate name       Delta Moles Total Moles   Reactant        Coefficient

	Calcite          -1.028e-08   8.158e-04   CaCO3                     1

-----------------------------Solution composition------------------------------

	Elements           Molality       Moles

	C                 1.842e-04   1.842e-04
	Ca                1.842e-04   1.842e-04

----------------------------Description of solution----------------------------

                                       pH  =   8.479      Charge balance
                                       pe  =   4.867      Adjusted to redox equilibrium
      Specific Conductance (µS/cm, 100°C)  = 159
                          Density (g/cm³)  =   0.95837
                               Volume (L)  =   1.04346
                        Activity of water  =   1.000
                 Ionic strength (mol/kgw)  =   5.343e-04
                       Mass of water (kg)  =   1.000e+00
                 Total alkalinity (eq/kg)  =   3.741e-04
                       Total CO2 (mol/kg)  =   1.842e-04
                         Temperature (°C)  = 100.00
                  Electrical balance (eq)  =  -5.690e-06
 Percent error, 100*(Cat-|An|)/(Cat+|An|)  =  -0.80
                               Iterations  =   1
                                  Total H  = 1.110124e+02
                                  Total O  = 5.550678e+01

----------------------------Distribution of species----------------------------

                                               Log       Log       Log    mole V
   Species          Molality    Activity  Molality  Activity     Gamma   cm³/mol

   OH-             1.795e-04   1.740e-04    -3.746    -3.760    -0.013     -5.91
   H+              3.421e-09   3.320e-09    -8.466    -8.479    -0.013      0.00
   H2O             5.551e+01   1.000e+00     1.744    -0.000     0.000     18.80
C(-4)         0.000e+00
   CH4             0.000e+00   0.000e+00   -97.107   -97.107     0.000     41.06
C(4)          1.842e-04
   HCO3-           1.703e-04   1.651e-04    -3.769    -3.782    -0.013     24.69
   CaCO3           7.981e-06   7.982e-06    -5.098    -5.098     0.000    -14.43
   CO3-2           3.931e-06   3.478e-06    -5.405    -5.459    -0.053    -14.07
   CO2             1.464e-06   1.464e-06    -5.834    -5.834     0.000     38.89
   CaHCO3+         6.000e-07   5.820e-07    -6.222    -6.235    -0.013     10.51
   (CO2)2          1.990e-13   1.990e-13   -12.701   -12.701     0.000     77.78
Ca            1.842e-04
   Ca+2            1.756e-04   1.554e-04    -3.755    -3.809    -0.053    -19.85
   CaCO3           7.981e-06   7.982e-06    -5.098    -5.098     0.000    -14.43
   CaHCO3+         6.000e-07   5.820e-07    -6.222    -6.235    -0.013     10.51
   CaOH+           8.009e-09   7.765e-09    -8.096    -8.110    -0.013     (0)  
H(0)          1.583e-30
   H2              7.916e-31   7.917e-31   -30.101   -30.101     0.000     28.57
O(0)          2.906e-13
   O2              1.453e-13   1.453e-13   -12.838   -12.838     0.000     33.90

------------------------------Saturation indices-------------------------------

  Phase               SI** log IAP   log K(373 K,   1 atm)

  Aragonite        -0.10     -9.27   -9.17  CaCO3
  Calcite          -0.00     -9.27   -9.27  CaCO3
  CH4(g)          -94.10    -97.11   -3.00  CH4
  CO2(g)           -3.86     -5.83   -1.98  CO2
  H2(g)           -27.00    -30.10   -3.10  H2
  H2O(g)           -0.01     -0.00    0.00  H2O
  O2(g)            -9.72    -12.84   -3.11  O2

**For a gas, SI = log10(fugacity). Fugacity = pressure * phi / 1 atm.
  For ideal gases, phi = 1.

Reaction step 99.

Using solution 2.	
Using kinetics 2.	

Kinetics 2.	

	Time step: 1.10452e+07 seconds  (Incremented time: 1.09347e+09 seconds)

	Rate name       Delta Moles Total Moles   Reactant        Coefficient

	Calcite          -9.510e-09   8.158e-04   CaCO3                     1

-----------------------------Solution composition------------------------------

	Elements           Molality       Moles

	C                 1.842e-04   1.842e-04
	Ca                1.842e-04   1.842e-04

----------------------------Description of solution----------------------------

                                       pH  =   8.479      Charge balance
                                       pe  =   4.868      Adjusted to redox equilibrium
      Specific Conductance (µS/cm, 100°C)  = 159
                          Density (g/cm³)  =   0.95837
                               Volume (L)  =   1.04346
                        Activity of water  =   1.000
                 Ionic strength (mol/kgw)  =   5.343e-04
                       Mass of water (kg)  =   1.000e+00
                 Total alkalinity (eq/kg)  =   3.742e-04
                       Total CO2 (mol/kg)  =   1.842e-04
                         Temperature (°C)  = 100.00
                  Electrical balance (eq)  =  -5.690e-06
 Percent error, 100*(Cat-|An|)/(Cat+|An|)  =  -0.80
                               Iterations  =   1
                                  Total H  = 1.110124e+02
                                  Total O  = 5.550678e+01

----------------------------Distribution of species----------------------------

                                               Log       Log       Log    mole V
   Species          Molality    Activity  Molality  Activity     Gamma   cm³/mol

   OH-             1.795e-04   1.740e-04    -3.746    -3.760    -0.013     -5.91
   H+              3.421e-09   3.320e-09    -8.466    -8.479    -0.013      0.00
   H2O             5.551e+01   1.000e+00     1.744    -0.000     0.000     18.80
C(-4)         0.000e+00
   CH4             0.000e+00   0.000e+00   -97.109   -97.109     0.000     41.06
C(4)          1.842e-04
   HCO3-           1.703e-04   1.651e-04    -3.769    -3.782    -0.013     24.69
   CaCO3           7.982e-06   7.983e-06    -5.098    -5.098     0.000    -14.43
   CO3-2           3.932e-06   3.478e-06    -5.405    -5.459    -0.053    -14.07
   CO2             1.464e-06   1.464e-06    -5.834    -5.834     0.000     38.89
   CaHCO3+         6.001e-07   5.821e-07    -6.222    -6.235    -0.013     10.51
   (CO2)2          1.990e-13   1.990e-13   -12.701   -12.701     0.000     77.78
Ca            1.842e-04
   Ca+2            1.756e-04   1.554e-04    -3.755    -3.809    -0.053    -19.85
   CaCO3           7.982e-06   7.983e-06    -5.098    -5.098     0.000    -14.43
   CaHCO3+         6.001e-07   5.821e-07    -6.222    -6.235    -0.013     10.51
   CaOH+           8.010e-09   7.765e-09    -8.096    -8.110    -0.013     (0)  
H(0)          1.581e-30
   H2              7.906e-31   7.907e-31   -30.102   -30.102     0.000     28.57
O(0)          2.913e-13
   O2              1.457e-13   1.457e-13   -12.837   -12.837     0.000     33.90

------------------------------Saturation indices-------------------------------

  Phase               SI** log IAP   log K(373 K,   1 atm)

  Aragonite        -0.10     -9.27   -9.17  CaCO3
  Calcite          -0.00     -9.27   -9.27  CaCO3
  CH4(g)          -94.10    -97.11   -3.00  CH4
  CO2(g)           -3.86     -5.83   -1.98  CO2
  H2(g)           -27.00    -30.10   -3.10  H2
  H2O(g)           -0.01     -0.00    0.00  H2O
  O2(g)            -9.72    -12.84   -3.11  O2

**For a gas, SI = log10(fugacity). Fugacity = pressure * phi / 1 atm.
  For ideal gases, phi = 1.

Reaction step 100.

Using solution 2.	
Using kinetics 2.	

Kinetics 2.	

	Time step: 1.10452e+07 seconds  (Incremented time: 1.10452e+09 seconds)

	Rate name       Delta Moles Total Moles   Reactant        Coefficient

	Calcite          -8.794e-09   8.158e-04   CaCO3                     1

-----------------------------Solution composition------------------------------

	Elements           Molality       Moles

	C                 1.842e-04   1.842e-04
	Ca                1.842e-04   1.842e-04

----------------------------Description of solution----------------------------

                                       pH  =   8.479      Charge balance
                                       pe  =   4.865      Adjusted to redox equilibrium
      Specific Conductance (µS/cm, 100°C)  = 159
                          Density (g/cm³)  =   0.95837
                               Volume (L)  =   1.04346
                        Activity of water  =   1.000
                 Ionic strength (mol/kgw)  =   5.344e-04
                       Mass of water (kg)  =   1.000e+00
                 Total alkalinity (eq/kg)  =   3.742e-04
                       Total CO2 (mol/kg)  =   1.842e-04
                         Temperature (°C)  = 100.00
                  Electrical balance (eq)  =  -5.690e-06
 Percent error, 100*(Cat-|An|)/(Cat+|An|)  =  -0.80
                               Iterations  =   1
                                  Total H  = 1.110124e+02
                                  Total O  = 5.550678e+01

----------------------------Distribution of species----------------------------

                                               Log       Log       Log    mole V
   Species          Molality    Activity  Molality  Activity     Gamma   cm³/mol

   OH-             1.795e-04   1.740e-04    -3.746    -3.759    -0.013     -5.91
   H+              3.421e-09   3.320e-09    -8.466    -8.479    -0.013      0.00
   H2O             5.551e+01   1.000e+00     1.744    -0.000     0.000     18.80
C(-4)         0.000e+00
   CH4             0.000e+00   0.000e+00   -97.090   -97.090     0.000     41.06
C(4)          1.842e-04
   HCO3-           1.703e-04   1.651e-04    -3.769    -3.782    -0.013     24.69
   CaCO3           7.983e-06   7.984e-06    -5.098    -5.098     0.000    -14.43
   CO3-2           3.932e-06   3.479e-06    -5.405    -5.459    -0.053    -14.07
   CO2             1.464e-06   1.464e-06    -5.834    -5.834     0.000     38.89
   CaHCO3+         6.001e-07   5.821e-07    -6.222    -6.235    -0.013     10.51
   (CO2)2          1.990e-13   1.990e-13   -12.701   -12.701     0.000     77.78
Ca            1.842e-04
   Ca+2            1.757e-04   1.554e-04    -3.755    -3.809    -0.053    -19.85
   CaCO3           7.983e-06   7.984e-06    -5.098    -5.098     0.000    -14.43
   CaHCO3+         6.001e-07   5.821e-07    -6.222    -6.235    -0.013     10.51
   CaOH+           8.011e-09   7.766e-09    -8.096    -8.110    -0.013     (0)  
H(0)          1.599e-30
   H2              7.994e-31   7.995e-31   -30.097   -30.097     0.000     28.57
O(0)          2.850e-13
   O2              1.425e-13   1.425e-13   -12.846   -12.846     0.000     33.90

------------------------------Saturation indices-------------------------------

  Phase               SI** log IAP   log K(373 K,   1 atm)

  Aragonite        -0.10     -9.27   -9.17  CaCO3
  Calcite          -0.00     -9.27   -9.27  CaCO3
  CH4(g)          -94.09    -97.09   -3.00  CH4
  CO2(g)           -3.86     -5.83   -1.98  CO2
  H2(g)           -27.00    -30.10   -3.10  H2
  H2O(g)           -0.01     -0.00    0.00  H2O
  O2(g)            -9.73    -12.85   -3.11  O2

**For a gas, SI = log10(fugacity). Fugacity = pressure * phi / 1 atm.
  For ideal gases, phi = 1.

------------------
End of simulation.
------------------

------------------------------------
Reading input data for simulation 2.
------------------------------------

-------------------------------
End of Run after 9.775 Seconds.
-------------------------------

