   Input file: k2.phr
  Output file: k2.phr.out
Database file: C:\Users\Eirik\Desktop\phreeqc-3.6.2-15100-x64\database\phreeqc.dat

------------------
Reading data base.
------------------

	SOLUTION_MASTER_SPECIES
	SOLUTION_SPECIES
	PHASES
	EXCHANGE_MASTER_SPECIES
	EXCHANGE_SPECIES
	SURFACE_MASTER_SPECIES
	SURFACE_SPECIES
	RATES
	END
------------------------------------
Reading input data for simulation 1.
------------------------------------

	Database file: C:\Users\Eirik\Desktop\phreeqc-3.6.2-15100-x64\database\phreeqc.dat
	SOLUTION 1
		temp 100
	RATES 1
	Albite
		start
		1 ka = parm(1)		#Rate constant for acid mechanism (mol/m^2/s)
		2 n = parm(2)		#Reaction order n with respect to H+	
		3 kn = parm(3)		#Rate constant for acid mechanism (mol/m^2/s)
		10 rate = ((ka*(ACT("H+")^n)) + kn)*(1 -  SR("Albite"))	#Overall rate
		20 moles = rate*time
		30 save moles
		end
	KINETICS 1
	Albite
		formula NaAlSi3O8
		m0  1e-3             			#Initial amount 1 mmol     	
		parms 6.9e-11 0.457 2.8e-13			#Values for ka, n and kn
		time_steps 150 years in 100          #60 years in 100 time steps
	INCREMENTAL_REACTIONS true
	USER_PUNCH 				#Write the simulation time in years to the selected output file
		headings time_yr
		10 PUNCH total_time/3.1536e7 
	SELECTED_OUTPUT 
		file ex2.xls
		reset false
		time true
		kinetic_reactants Albite
		saturation_indices Albite
		step true
		ph true
	USER_GRAPH 2
		-chart_title "Albite saturation with CO2, T=100, no equilibrium gas"
		-axis_titles "Years" "SR" "Albite remaining (mmol)"
		-headings time SR Albite_remaining
		-initial_solutions  false
		-start
		10 graph_x total_time/3.1536e7 				
		20 graph_y SR("Albite")				
		30 graph_sy KIN("Albite")*1e3			
		-end
	END
-------------------------------------------
Beginning of initial solution calculations.
-------------------------------------------

Initial solution 1.	

-----------------------------Solution composition------------------------------

	Elements           Molality       Moles

	Pure water     

----------------------------Description of solution----------------------------

                                       pH  =   7.000    
                                       pe  =   4.000    
      Specific Conductance (µS/cm, 100°C)  = 2
                          Density (g/cm³)  =   0.95835
                               Volume (L)  =   1.04346
                        Activity of water  =   1.000
                 Ionic strength (mol/kgw)  =   2.945e-06
                       Mass of water (kg)  =   1.000e+00
                 Total alkalinity (eq/kg)  =   5.690e-06
                         Temperature (°C)  = 100.00
                  Electrical balance (eq)  =  -5.690e-06
 Percent error, 100*(Cat-|An|)/(Cat+|An|)  = -96.60
                               Iterations  =   2
                                  Total H  = 1.110124e+02
                                  Total O  = 5.550622e+01

----------------------------Distribution of species----------------------------

                                               Log       Log       Log    mole V
   Species          Molality    Activity  Molality  Activity     Gamma   cm³/mol

   OH-             5.790e-06   5.777e-06    -5.237    -5.238    -0.001     -5.96
   H+              1.002e-07   1.000e-07    -6.999    -7.000    -0.001      0.00
   H2O             5.551e+01   1.000e+00     1.744    -0.000     0.000     18.80
H(0)          7.796e-26
   H2              3.898e-26   3.898e-26   -25.409   -25.409     0.000     28.57
O(0)          1.199e-22
   O2              5.994e-23   5.994e-23   -22.222   -22.222     0.000     33.90

------------------------------Saturation indices-------------------------------

  Phase               SI** log IAP   log K(373 K,   1 atm)

  H2(g)           -22.31    -25.41   -3.10  H2
  H2O(g)           -0.00     -0.00    0.00  H2O
  O2(g)           -19.11    -22.22   -3.11  O2

**For a gas, SI = log10(fugacity). Fugacity = pressure * phi / 1 atm.
  For ideal gases, phi = 1.

-----------------------------------------
Beginning of batch-reaction calculations.
-----------------------------------------

Reaction step 1.

Using solution 1.	
Using kinetics 1.	

Kinetics 1.	

	Time step: 4.73364e+07 seconds  (Incremented time: 4.73364e+07 seconds)

	Rate name       Delta Moles Total Moles   Reactant        Coefficient

	Albite           -1.534e-05   9.847e-04   NaAlSi3O8                 1

-----------------------------Solution composition------------------------------

	Elements           Molality       Moles

	Al                1.534e-05   1.534e-05
	Na                1.534e-05   1.534e-05
	Si                4.603e-05   4.603e-05

----------------------------Description of solution----------------------------

                                       pH  =   6.980      Charge balance
                                       pe  =   6.292      Adjusted to redox equilibrium
      Specific Conductance (µS/cm, 100°C)  = 4
                          Density (g/cm³)  =   0.95835
                               Volume (L)  =   1.04346
                        Activity of water  =   1.000
                 Ionic strength (mol/kgw)  =   1.830e-05
                       Mass of water (kg)  =   1.000e+00
                 Total alkalinity (eq/kg)  =   6.706e-05
                         Temperature (°C)  = 100.00
                  Electrical balance (eq)  =  -5.690e-06
 Percent error, 100*(Cat-|An|)/(Cat+|An|)  = -15.55
                               Iterations  =  37
                                  Total H  = 1.110124e+02
                                  Total O  = 5.550635e+01

----------------------------Distribution of species----------------------------

                                               Log       Log       Log    mole V
   Species          Molality    Activity  Molality  Activity     Gamma   cm³/mol

   OH-             5.547e-06   5.514e-06    -5.256    -5.259    -0.003     -5.95
   H+              1.054e-07   1.048e-07    -6.977    -6.980    -0.003      0.00
   H2O             5.551e+01   1.000e+00     1.744    -0.000     0.000     18.80
Al            1.534e-05
   Al(OH)4-        1.525e-05   1.516e-05    -4.817    -4.819    -0.003     (0)  
   Al(OH)3         9.425e-08   9.425e-08    -7.026    -7.026     0.000     (0)  
   Al(OH)2+        2.441e-09   2.427e-09    -8.612    -8.615    -0.003     (0)  
   AlOH+2          4.694e-13   4.585e-13   -12.328   -12.339    -0.010    -32.05
   Al+3            7.391e-17   7.013e-17   -16.131   -16.154    -0.023    -49.89
H(0)          2.228e-30
   H2              1.114e-30   1.114e-30   -29.953   -29.953     0.000     28.57
Na            1.534e-05
   Na+             1.534e-05   1.525e-05    -4.814    -4.817    -0.003      0.24
   NaOH            8.410e-21   8.410e-21   -20.075   -20.075     0.000     (0)  
O(0)          1.468e-13
   O2              7.340e-14   7.340e-14   -13.134   -13.134     0.000     33.90
Si            4.603e-05
   H4SiO4          4.568e-05   4.568e-05    -4.340    -4.340     0.000     48.82
   H3SiO4-         3.482e-07   3.461e-07    -6.458    -6.461    -0.003     26.30
   H2SiO4-2        5.316e-12   5.193e-12   -11.274   -11.285    -0.010     (0)  

------------------------------Saturation indices-------------------------------

  Phase               SI** log IAP   log K(373 K,   1 atm)

  Al(OH)3(a)       -2.11      4.79    6.90  Al(OH)3
  Albite           -8.47    -22.66  -14.19  NaAlSi3O8
  Chalcedony       -1.48     -4.34   -2.86  SiO2
  Gibbsite          0.03      4.79    4.75  Al(OH)3
  H2(g)           -26.85    -29.95   -3.10  H2
  H2O(g)           -0.00     -0.00    0.00  H2O
  Kaolinite        -1.34      0.89    2.23  Al2Si2O5(OH)4
  O2(g)           -10.02    -13.13   -3.11  O2
  Quartz           -1.24     -4.34   -3.10  SiO2
  SiO2(a)          -2.12     -4.34   -2.22  SiO2

**For a gas, SI = log10(fugacity). Fugacity = pressure * phi / 1 atm.
  For ideal gases, phi = 1.

Reaction step 2.

Using solution 1.	
Using kinetics 1.	

Kinetics 1.	

	Time step: 4.73364e+07 seconds  (Incremented time: 9.46728e+07 seconds)

	Rate name       Delta Moles Total Moles   Reactant        Coefficient

	Albite           -1.538e-05   9.693e-04   NaAlSi3O8                 1

-----------------------------Solution composition------------------------------

	Elements           Molality       Moles

	Al                3.073e-05   3.073e-05
	Na                3.073e-05   3.073e-05
	Si                9.218e-05   9.218e-05

----------------------------Description of solution----------------------------

                                       pH  =   6.962      Charge balance
                                       pe  =   6.315      Adjusted to redox equilibrium
      Specific Conductance (µS/cm, 100°C)  = 6
                          Density (g/cm³)  =   0.95835
                               Volume (L)  =   1.04346
                        Activity of water  =   1.000
                 Ionic strength (mol/kgw)  =   3.369e-05
                       Mass of water (kg)  =   1.000e+00
                 Total alkalinity (eq/kg)  =   1.286e-04
                         Temperature (°C)  = 100.00
                  Electrical balance (eq)  =  -5.690e-06
 Percent error, 100*(Cat-|An|)/(Cat+|An|)  =  -8.45
                               Iterations  =  27
                                  Total H  = 1.110124e+02
                                  Total O  = 5.550647e+01

----------------------------Distribution of species----------------------------

                                               Log       Log       Log    mole V
   Species          Molality    Activity  Molality  Activity     Gamma   cm³/mol

   OH-             5.336e-06   5.294e-06    -5.273    -5.276    -0.003     -5.95
   H+              1.100e-07   1.091e-07    -6.959    -6.962    -0.003      0.00
   H2O             5.551e+01   1.000e+00     1.744    -0.000     0.000     18.80
Al            3.073e-05
   Al(OH)4-        3.053e-05   3.028e-05    -4.515    -4.519    -0.003     (0)  
   Al(OH)3         1.962e-07   1.962e-07    -6.707    -6.707     0.000     (0)  
   Al(OH)2+        5.303e-09   5.261e-09    -8.276    -8.279    -0.003     (0)  
   AlOH+2          1.069e-12   1.035e-12   -11.971   -11.985    -0.014    -32.03
   Al+3            1.771e-16   1.650e-16   -15.752   -15.783    -0.031    -49.87
H(0)          2.173e-30
   H2              1.087e-30   1.087e-30   -29.964   -29.964     0.000     28.57
Na            3.073e-05
   Na+             3.073e-05   3.048e-05    -4.512    -4.516    -0.003      0.24
   NaOH            1.614e-20   1.614e-20   -19.792   -19.792     0.000     (0)  
O(0)          1.543e-13
   O2              7.715e-14   7.715e-14   -13.113   -13.113     0.000     33.90
Si            9.218e-05
   H4SiO4          9.151e-05   9.151e-05    -4.039    -4.039     0.000     48.82
   H3SiO4-         6.710e-07   6.657e-07    -6.173    -6.177    -0.003     26.30
   H2SiO4-2        9.897e-12   9.588e-12   -11.004   -11.018    -0.014     (0)  

------------------------------Saturation indices-------------------------------

  Phase               SI** log IAP   log K(373 K,   1 atm)

  Al(OH)3(a)       -1.79      5.10    6.90  Al(OH)3
  Albite           -6.96    -21.15  -14.19  NaAlSi3O8
  Chalcedony       -1.18     -4.04   -2.86  SiO2
  Gibbsite          0.35      5.10    4.75  Al(OH)3
  H2(g)           -26.86    -29.96   -3.10  H2
  H2O(g)           -0.00     -0.00    0.00  H2O
  Kaolinite        -0.10      2.13    2.23  Al2Si2O5(OH)4
  O2(g)           -10.00    -13.11   -3.11  O2
  Quartz           -0.94     -4.04   -3.10  SiO2
  SiO2(a)          -1.82     -4.04   -2.22  SiO2

**For a gas, SI = log10(fugacity). Fugacity = pressure * phi / 1 atm.
  For ideal gases, phi = 1.

Reaction step 3.

Using solution 1.	
Using kinetics 1.	

Kinetics 1.	

	Time step: 4.73364e+07 seconds  (Incremented time: 1.42009e+08 seconds)

	Rate name       Delta Moles Total Moles   Reactant        Coefficient

	Albite           -1.542e-05   9.539e-04   NaAlSi3O8                 1

-----------------------------Solution composition------------------------------

	Elements           Molality       Moles

	Al                4.615e-05   4.615e-05
	Na                4.615e-05   4.615e-05
	Si                1.384e-04   1.384e-04

----------------------------Description of solution----------------------------

                                       pH  =   6.946      Charge balance
                                       pe  =   6.337      Adjusted to redox equilibrium
      Specific Conductance (µS/cm, 100°C)  = 8
                          Density (g/cm³)  =   0.95836
                               Volume (L)  =   1.04346
                        Activity of water  =   1.000
                 Ionic strength (mol/kgw)  =   4.912e-05
                       Mass of water (kg)  =   1.000e+00
                 Total alkalinity (eq/kg)  =   1.903e-04
                         Temperature (°C)  = 100.00
                  Electrical balance (eq)  =  -5.690e-06
 Percent error, 100*(Cat-|An|)/(Cat+|An|)  =  -5.79
                               Iterations  =  22
                                  Total H  = 1.110124e+02
                                  Total O  = 5.550659e+01

----------------------------Distribution of species----------------------------

                                               Log       Log       Log    mole V
   Species          Molality    Activity  Molality  Activity     Gamma   cm³/mol

   OH-             5.153e-06   5.104e-06    -5.288    -5.292    -0.004     -5.94
   H+              1.143e-07   1.132e-07    -6.942    -6.946    -0.004      0.00
   H2O             5.551e+01   1.000e+00     1.744    -0.000     0.000     18.80
Al            4.615e-05
   Al(OH)4-        4.584e-05   4.540e-05    -4.339    -4.343    -0.004     (0)  
   Al(OH)3         3.050e-07   3.050e-07    -6.516    -6.516     0.000     (0)  
   Al(OH)2+        8.565e-09   8.484e-09    -8.067    -8.071    -0.004     (0)  
   AlOH+2          1.799e-12   1.732e-12   -11.745   -11.762    -0.017    -32.02
   Al+3            3.117e-16   2.862e-16   -15.506   -15.543    -0.037    -49.84
H(0)          2.120e-30
   H2              1.060e-30   1.060e-30   -29.975   -29.975     0.000     28.57
Na            4.615e-05
   Na+             4.615e-05   4.571e-05    -4.336    -4.340    -0.004      0.25
   NaOH            2.333e-20   2.333e-20   -19.632   -19.632     0.000     (0)  
O(0)          1.622e-13
   O2              8.110e-14   8.110e-14   -13.091   -13.091     0.000     33.90
Si            1.384e-04
   H4SiO4          1.375e-04   1.375e-04    -3.862    -3.862     0.000     48.82
   H3SiO4-         9.735e-07   9.643e-07    -6.012    -6.016    -0.004     26.30
   H2SiO4-2        1.391e-11   1.339e-11   -10.857   -10.873    -0.017     (0)  

------------------------------Saturation indices-------------------------------

  Phase               SI** log IAP   log K(373 K,   1 atm)

  Al(OH)3(a)       -1.60      5.30    6.90  Al(OH)3
  Albite           -6.08    -20.27  -14.19  NaAlSi3O8
  Chalcedony       -1.01     -3.86   -2.86  SiO2
  Gibbsite          0.54      5.30    4.75  Al(OH)3
  H2(g)           -26.87    -29.97   -3.10  H2
  H2O(g)           -0.00     -0.00    0.00  H2O
  Kaolinite         0.63      2.87    2.23  Al2Si2O5(OH)4
  O2(g)            -9.98    -13.09   -3.11  O2
  Quartz           -0.76     -3.86   -3.10  SiO2
  SiO2(a)          -1.64     -3.86   -2.22  SiO2

**For a gas, SI = log10(fugacity). Fugacity = pressure * phi / 1 atm.
  For ideal gases, phi = 1.

Reaction step 4.

Using solution 1.	
Using kinetics 1.	

Kinetics 1.	

	Time step: 4.73364e+07 seconds  (Incremented time: 1.89346e+08 seconds)

	Rate name       Delta Moles Total Moles   Reactant        Coefficient

	Albite           -1.546e-05   9.384e-04   NaAlSi3O8                 1

-----------------------------Solution composition------------------------------

	Elements           Molality       Moles

	Al                6.161e-05   6.161e-05
	Na                6.161e-05   6.161e-05
	Si                1.848e-04   1.848e-04

----------------------------Description of solution----------------------------

                                       pH  =   6.932      Charge balance
                                       pe  =   6.355      Adjusted to redox equilibrium
      Specific Conductance (µS/cm, 100°C)  = 11
                          Density (g/cm³)  =   0.95836
                               Volume (L)  =   1.04346
                        Activity of water  =   1.000
                 Ionic strength (mol/kgw)  =   6.458e-05
                       Mass of water (kg)  =   1.000e+00
                 Total alkalinity (eq/kg)  =   2.521e-04
                         Temperature (°C)  = 100.00
                  Electrical balance (eq)  =  -5.690e-06
 Percent error, 100*(Cat-|An|)/(Cat+|An|)  =  -4.41
                               Iterations  =  22
                                  Total H  = 1.110124e+02
                                  Total O  = 5.550672e+01

----------------------------Distribution of species----------------------------

                                               Log       Log       Log    mole V
   Species          Molality    Activity  Molality  Activity     Gamma   cm³/mol

   OH-             4.993e-06   4.939e-06    -5.302    -5.306    -0.005     -5.94
   H+              1.182e-07   1.170e-07    -6.927    -6.932    -0.005      0.00
   H2O             5.551e+01   1.000e+00     1.744    -0.000     0.000     18.80
Al            6.161e-05
   Al(OH)4-        6.117e-05   6.051e-05    -4.213    -4.218    -0.005     (0)  
   Al(OH)3         4.201e-07   4.201e-07    -6.377    -6.377     0.000     (0)  
   Al(OH)2+        1.221e-08   1.208e-08    -7.913    -7.918    -0.005     (0)  
   AlOH+2          2.661e-12   2.547e-12   -11.575   -11.594    -0.019    -32.02
   Al+3            4.796e-16   4.350e-16   -15.319   -15.361    -0.042    -49.83
H(0)          2.079e-30
   H2              1.040e-30   1.040e-30   -29.983   -29.983     0.000     28.57
Na            6.161e-05
   Na+             6.161e-05   6.093e-05    -4.210    -4.215    -0.005      0.25
   NaOH            3.009e-20   3.009e-20   -19.522   -19.522     0.000     (0)  
O(0)          1.686e-13
   O2              8.429e-14   8.429e-14   -13.074   -13.074     0.000     33.90
Si            1.848e-04
   H4SiO4          1.836e-04   1.836e-04    -3.736    -3.736     0.000     48.82
   H3SiO4-         1.260e-06   1.246e-06    -5.900    -5.905    -0.005     26.31
   H2SiO4-2        1.749e-11   1.674e-11   -10.757   -10.776    -0.019     (0)  

------------------------------Saturation indices-------------------------------

  Phase               SI** log IAP   log K(373 K,   1 atm)

  Al(OH)3(a)       -1.46      5.43    6.90  Al(OH)3
  Albite           -5.46    -19.64  -14.19  NaAlSi3O8
  Chalcedony       -0.88     -3.74   -2.86  SiO2
  Gibbsite          0.68      5.43    4.75  Al(OH)3
  H2(g)           -26.88    -29.98   -3.10  H2
  H2O(g)           -0.01     -0.00    0.00  H2O
  Kaolinite         1.16      3.40    2.23  Al2Si2O5(OH)4
  O2(g)            -9.96    -13.07   -3.11  O2
  Quartz           -0.64     -3.74   -3.10  SiO2
  SiO2(a)          -1.52     -3.74   -2.22  SiO2

**For a gas, SI = log10(fugacity). Fugacity = pressure * phi / 1 atm.
  For ideal gases, phi = 1.

Reaction step 5.

Using solution 1.	
Using kinetics 1.	

Kinetics 1.	

	Time step: 4.73364e+07 seconds  (Incremented time: 2.36682e+08 seconds)

	Rate name       Delta Moles Total Moles   Reactant        Coefficient

	Albite           -1.548e-05   9.229e-04   NaAlSi3O8                 1

-----------------------------Solution composition------------------------------

	Elements           Molality       Moles

	Al                7.709e-05   7.709e-05
	Na                7.709e-05   7.709e-05
	Si                2.313e-04   2.313e-04

----------------------------Description of solution----------------------------

                                       pH  =   6.919      Charge balance
                                       pe  =   6.378      Adjusted to redox equilibrium
      Specific Conductance (µS/cm, 100°C)  = 13
                          Density (g/cm³)  =   0.95837
                               Volume (L)  =   1.04346
                        Activity of water  =   1.000
                 Ionic strength (mol/kgw)  =   8.007e-05
                       Mass of water (kg)  =   1.000e+00
                 Total alkalinity (eq/kg)  =   3.140e-04
                         Temperature (°C)  = 100.00
                  Electrical balance (eq)  =  -5.690e-06
 Percent error, 100*(Cat-|An|)/(Cat+|An|)  =  -3.55
                               Iterations  =  10
                                  Total H  = 1.110124e+02
                                  Total O  = 5.550684e+01

----------------------------Distribution of species----------------------------

                                               Log       Log       Log    mole V
   Species          Molality    Activity  Molality  Activity     Gamma   cm³/mol

   OH-             4.853e-06   4.794e-06    -5.314    -5.319    -0.005     -5.94
   H+              1.220e-07   1.205e-07    -6.914    -6.919    -0.005      0.00
   H2O             5.551e+01   1.000e+00     1.744    -0.000     0.000     18.80
Al            7.709e-05
   Al(OH)4-        7.653e-05   7.560e-05    -4.116    -4.121    -0.005     (0)  
   Al(OH)3         5.408e-07   5.408e-07    -6.267    -6.267     0.000     (0)  
   Al(OH)2+        1.621e-08   1.601e-08    -7.790    -7.796    -0.005     (0)  
   AlOH+2          3.653e-12   3.480e-12   -11.437   -11.458    -0.021    -32.01
   Al+3            6.822e-16   6.122e-16   -15.166   -15.213    -0.047    -49.81
H(0)          1.984e-30
   H2              9.918e-31   9.918e-31   -30.004   -30.004     0.000     28.57
Na            7.709e-05
   Na+             7.709e-05   7.615e-05    -4.113    -4.118    -0.005      0.25
   NaOH            3.651e-20   3.651e-20   -19.438   -19.438     0.000     (0)  
O(0)          1.852e-13
   O2              9.260e-14   9.261e-14   -13.033   -13.033     0.000     33.90
Si            2.313e-04
   H4SiO4          2.297e-04   2.297e-04    -3.639    -3.639     0.000     48.82
   H3SiO4-         1.532e-06   1.514e-06    -5.815    -5.820    -0.005     26.31
   H2SiO4-2        2.073e-11   1.974e-11   -10.683   -10.705    -0.021     (0)  

------------------------------Saturation indices-------------------------------

  Phase               SI** log IAP   log K(373 K,   1 atm)

  Al(OH)3(a)       -1.35      5.54    6.90  Al(OH)3
  Albite           -4.97    -19.16  -14.19  NaAlSi3O8
  Chalcedony       -0.78     -3.64   -2.86  SiO2
  Gibbsite          0.79      5.54    4.75  Al(OH)3
  H2(g)           -26.90    -30.00   -3.10  H2
  H2O(g)           -0.01     -0.00    0.00  H2O
  Kaolinite         1.58      3.81    2.23  Al2Si2O5(OH)4
  O2(g)            -9.92    -13.03   -3.11  O2
  Quartz           -0.54     -3.64   -3.10  SiO2
  SiO2(a)          -1.42     -3.64   -2.22  SiO2

**For a gas, SI = log10(fugacity). Fugacity = pressure * phi / 1 atm.
  For ideal gases, phi = 1.

Reaction step 6.

Using solution 1.	
Using kinetics 1.	

Kinetics 1.	

	Time step: 4.73364e+07 seconds  (Incremented time: 2.84018e+08 seconds)

	Rate name       Delta Moles Total Moles   Reactant        Coefficient

	Albite           -1.551e-05   9.074e-04   NaAlSi3O8                 1

-----------------------------Solution composition------------------------------

	Elements           Molality       Moles

	Al                9.260e-05   9.260e-05
	Na                9.260e-05   9.260e-05
	Si                2.778e-04   2.778e-04

----------------------------Description of solution----------------------------

                                       pH  =   6.907      Charge balance
                                       pe  =   6.389      Adjusted to redox equilibrium
      Specific Conductance (µS/cm, 100°C)  = 15
                          Density (g/cm³)  =   0.95837
                               Volume (L)  =   1.04346
                        Activity of water  =   1.000
                 Ionic strength (mol/kgw)  =   9.559e-05
                       Mass of water (kg)  =   1.000e+00
                 Total alkalinity (eq/kg)  =   3.761e-04
                         Temperature (°C)  = 100.00
                  Electrical balance (eq)  =  -5.690e-06
 Percent error, 100*(Cat-|An|)/(Cat+|An|)  =  -2.98
                               Iterations  =  10
                                  Total H  = 1.110124e+02
                                  Total O  = 5.550696e+01

----------------------------Distribution of species----------------------------

                                               Log       Log       Log    mole V
   Species          Molality    Activity  Molality  Activity     Gamma   cm³/mol

   OH-             4.729e-06   4.667e-06    -5.325    -5.331    -0.006     -5.94
   H+              1.254e-07   1.238e-07    -6.902    -6.907    -0.006      0.00
   H2O             5.551e+01   1.000e+00     1.744    -0.000     0.000     18.80
Al            9.260e-05
   Al(OH)4-        9.191e-05   9.070e-05    -4.037    -4.042    -0.006     (0)  
   Al(OH)3         6.664e-07   6.665e-07    -6.176    -6.176     0.000     (0)  
   Al(OH)2+        2.054e-08   2.027e-08    -7.687    -7.693    -0.006     (0)  
   AlOH+2          4.773e-12   4.526e-12   -11.321   -11.344    -0.023    -32.00
   Al+3            9.205e-16   8.180e-16   -15.036   -15.087    -0.051    -49.80
H(0)          1.992e-30
   H2              9.958e-31   9.958e-31   -30.002   -30.002     0.000     28.57
Na            9.260e-05
   Na+             9.260e-05   9.138e-05    -4.033    -4.039    -0.006      0.25
   NaOH            4.264e-20   4.264e-20   -19.370   -19.370     0.000     (0)  
O(0)          1.837e-13
   O2              9.186e-14   9.186e-14   -13.037   -13.037     0.000     33.90
Si            2.778e-04
   H4SiO4          2.760e-04   2.760e-04    -3.559    -3.559     0.000     48.82
   H3SiO4-         1.794e-06   1.770e-06    -5.746    -5.752    -0.006     26.31
   H2SiO4-2        2.370e-11   2.248e-11   -10.625   -10.648    -0.023     (0)  

------------------------------Saturation indices-------------------------------

  Phase               SI** log IAP   log K(373 K,   1 atm)

  Al(OH)3(a)       -1.26      5.63    6.90  Al(OH)3
  Albite           -4.57    -18.76  -14.19  NaAlSi3O8
  Chalcedony       -0.70     -3.56   -2.86  SiO2
  Gibbsite          0.88      5.63    4.75  Al(OH)3
  H2(g)           -26.90    -30.00   -3.10  H2
  H2O(g)           -0.01     -0.00    0.00  H2O
  Kaolinite         1.92      4.15    2.23  Al2Si2O5(OH)4
  O2(g)            -9.92    -13.04   -3.11  O2
  Quartz           -0.46     -3.56   -3.10  SiO2
  SiO2(a)          -1.34     -3.56   -2.22  SiO2

**For a gas, SI = log10(fugacity). Fugacity = pressure * phi / 1 atm.
  For ideal gases, phi = 1.

Reaction step 7.

Using solution 1.	
Using kinetics 1.	

Kinetics 1.	

	Time step: 4.73364e+07 seconds  (Incremented time: 3.31355e+08 seconds)

	Rate name       Delta Moles Total Moles   Reactant        Coefficient

	Albite           -1.554e-05   8.919e-04   NaAlSi3O8                 1

-----------------------------Solution composition------------------------------

	Elements           Molality       Moles

	Al                1.081e-04   1.081e-04
	Na                1.081e-04   1.081e-04
	Si                3.244e-04   3.244e-04

----------------------------Description of solution----------------------------

                                       pH  =   6.897      Charge balance
                                       pe  =   6.405      Adjusted to redox equilibrium
      Specific Conductance (µS/cm, 100°C)  = 17
                          Density (g/cm³)  =   0.95837
                               Volume (L)  =   1.04346
                        Activity of water  =   1.000
                 Ionic strength (mol/kgw)  =   1.111e-04
                       Mass of water (kg)  =   1.000e+00
                 Total alkalinity (eq/kg)  =   4.383e-04
                         Temperature (°C)  = 100.00
                  Electrical balance (eq)  =  -5.690e-06
 Percent error, 100*(Cat-|An|)/(Cat+|An|)  =  -2.56
                               Iterations  =   9
                                  Total H  = 1.110124e+02
                                  Total O  = 5.550709e+01

----------------------------Distribution of species----------------------------

                                               Log       Log       Log    mole V
   Species          Molality    Activity  Molality  Activity     Gamma   cm³/mol

   OH-             4.619e-06   4.553e-06    -5.335    -5.342    -0.006     -5.94
   H+              1.287e-07   1.269e-07    -6.891    -6.897    -0.006      0.00
   H2O             5.551e+01   1.000e+00     1.744    -0.000     0.000     18.80
Al            1.081e-04
   Al(OH)4-        1.073e-04   1.058e-04    -3.969    -3.976    -0.006     (0)  
   Al(OH)3         7.967e-07   7.967e-07    -6.099    -6.099     0.000     (0)  
   Al(OH)2+        2.519e-08   2.484e-08    -7.599    -7.605    -0.006     (0)  
   AlOH+2          6.017e-12   5.683e-12   -11.221   -11.245    -0.025    -32.00
   Al+3            1.195e-15   1.053e-15   -14.923   -14.978    -0.055    -49.78
H(0)          1.943e-30
   H2              9.715e-31   9.715e-31   -30.013   -30.013     0.000     28.57
Na            1.081e-04
   Na+             1.081e-04   1.066e-04    -3.966    -3.972    -0.006      0.25
   NaOH            4.854e-20   4.854e-20   -19.314   -19.314     0.000     (0)  
O(0)          1.930e-13
   O2              9.651e-14   9.651e-14   -13.015   -13.015     0.000     33.90
Si            3.244e-04
   H4SiO4          3.224e-04   3.224e-04    -3.492    -3.492     0.000     48.82
   H3SiO4-         2.047e-06   2.017e-06    -5.689    -5.695    -0.006     26.31
   H2SiO4-2        2.646e-11   2.499e-11   -10.577   -10.602    -0.025     (0)  

------------------------------Saturation indices-------------------------------

  Phase               SI** log IAP   log K(373 K,   1 atm)

  Al(OH)3(a)       -1.18      5.71    6.90  Al(OH)3
  Albite           -4.24    -18.42  -14.19  NaAlSi3O8
  Chalcedony       -0.64     -3.49   -2.86  SiO2
  Gibbsite          0.96      5.71    4.75  Al(OH)3
  H2(g)           -26.91    -30.01   -3.10  H2
  H2O(g)           -0.01     -0.00    0.00  H2O
  Kaolinite         2.21      4.44    2.23  Al2Si2O5(OH)4
  O2(g)            -9.90    -13.02   -3.11  O2
  Quartz           -0.39     -3.49   -3.10  SiO2
  SiO2(a)          -1.27     -3.49   -2.22  SiO2

**For a gas, SI = log10(fugacity). Fugacity = pressure * phi / 1 atm.
  For ideal gases, phi = 1.

Reaction step 8.

Using solution 1.	
Using kinetics 1.	

Kinetics 1.	

	Time step: 4.73364e+07 seconds  (Incremented time: 3.78691e+08 seconds)

	Rate name       Delta Moles Total Moles   Reactant        Coefficient

	Albite           -1.556e-05   8.763e-04   NaAlSi3O8                 1

-----------------------------Solution composition------------------------------

	Elements           Molality       Moles

	Al                1.237e-04   1.237e-04
	Na                1.237e-04   1.237e-04
	Si                3.711e-04   3.711e-04

----------------------------Description of solution----------------------------

                                       pH  =   6.887      Charge balance
                                       pe  =   6.410      Adjusted to redox equilibrium
      Specific Conductance (µS/cm, 100°C)  = 19
                          Density (g/cm³)  =   0.95838
                               Volume (L)  =   1.04346
                        Activity of water  =   1.000
                 Ionic strength (mol/kgw)  =   1.267e-04
                       Mass of water (kg)  =   1.000e+00
                 Total alkalinity (eq/kg)  =   5.005e-04
                         Temperature (°C)  = 100.00
                  Electrical balance (eq)  =  -5.690e-06
 Percent error, 100*(Cat-|An|)/(Cat+|An|)  =  -2.25
                               Iterations  =   9
                                  Total H  = 1.110124e+02
                                  Total O  = 5.550721e+01

----------------------------Distribution of species----------------------------

                                               Log       Log       Log    mole V
   Species          Molality    Activity  Molality  Activity     Gamma   cm³/mol

   OH-             4.521e-06   4.453e-06    -5.345    -5.351    -0.007     -5.94
   H+              1.317e-07   1.297e-07    -6.880    -6.887    -0.007      0.00
   H2O             5.551e+01   1.000e+00     1.744    -0.000     0.000     18.80
Al            1.237e-04
   Al(OH)4-        1.227e-04   1.209e-04    -3.911    -3.918    -0.007     (0)  
   Al(OH)3         9.309e-07   9.309e-07    -6.031    -6.031     0.000     (0)  
   Al(OH)2+        3.014e-08   2.968e-08    -7.521    -7.528    -0.007     (0)  
   AlOH+2          7.381e-12   6.945e-12   -11.132   -11.158    -0.026    -31.99
   Al+3            1.506e-15   1.315e-15   -14.822   -14.881    -0.059    -49.77
H(0)          1.989e-30
   H2              9.947e-31   9.947e-31   -30.002   -30.002     0.000     28.57
Na            1.237e-04
   Na+             1.237e-04   1.218e-04    -3.908    -3.914    -0.007      0.25
   NaOH            5.424e-20   5.424e-20   -19.266   -19.266     0.000     (0)  
O(0)          1.841e-13
   O2              9.205e-14   9.206e-14   -13.036   -13.036     0.000     33.90
Si            3.711e-04
   H4SiO4          3.688e-04   3.688e-04    -3.433    -3.433     0.000     48.82
   H3SiO4-         2.292e-06   2.257e-06    -5.640    -5.646    -0.007     26.31
   H2SiO4-2        2.906e-11   2.734e-11   -10.537   -10.563    -0.026     (0)  

------------------------------Saturation indices-------------------------------

  Phase               SI** log IAP   log K(373 K,   1 atm)

  Al(OH)3(a)       -1.12      5.78    6.90  Al(OH)3
  Albite           -3.94    -18.13  -14.19  NaAlSi3O8
  Chalcedony       -0.58     -3.43   -2.86  SiO2
  Gibbsite          1.03      5.78    4.75  Al(OH)3
  H2(g)           -26.90    -30.00   -3.10  H2
  H2O(g)           -0.01     -0.00    0.00  H2O
  Kaolinite         2.46      4.69    2.23  Al2Si2O5(OH)4
  O2(g)            -9.92    -13.04   -3.11  O2
  Quartz           -0.34     -3.43   -3.10  SiO2
  SiO2(a)          -1.21     -3.43   -2.22  SiO2

**For a gas, SI = log10(fugacity). Fugacity = pressure * phi / 1 atm.
  For ideal gases, phi = 1.

Reaction step 9.

Using solution 1.	
Using kinetics 1.	

Kinetics 1.	

	Time step: 4.73364e+07 seconds  (Incremented time: 4.26028e+08 seconds)

	Rate name       Delta Moles Total Moles   Reactant        Coefficient

	Albite           -1.559e-05   8.607e-04   NaAlSi3O8                 1

-----------------------------Solution composition------------------------------

	Elements           Molality       Moles

	Al                1.393e-04   1.393e-04
	Na                1.393e-04   1.393e-04
	Si                4.179e-04   4.179e-04

----------------------------Description of solution----------------------------

                                       pH  =   6.878      Charge balance
                                       pe  =   6.423      Adjusted to redox equilibrium
      Specific Conductance (µS/cm, 100°C)  = 22
                          Density (g/cm³)  =   0.95838
                               Volume (L)  =   1.04346
                        Activity of water  =   1.000
                 Ionic strength (mol/kgw)  =   1.423e-04
                       Mass of water (kg)  =   1.000e+00
                 Total alkalinity (eq/kg)  =   5.629e-04
                         Temperature (°C)  = 100.00
                  Electrical balance (eq)  =  -5.690e-06
 Percent error, 100*(Cat-|An|)/(Cat+|An|)  =  -2.00
                               Iterations  =   9
                                  Total H  = 1.110124e+02
                                  Total O  = 5.550734e+01

----------------------------Distribution of species----------------------------

                                               Log       Log       Log    mole V
   Species          Molality    Activity  Molality  Activity     Gamma   cm³/mol

   OH-             4.434e-06   4.362e-06    -5.353    -5.360    -0.007     -5.93
   H+              1.345e-07   1.324e-07    -6.871    -6.878    -0.007      0.00
   H2O             5.551e+01   1.000e+00     1.744    -0.000     0.000     18.80
Al            1.393e-04
   Al(OH)4-        1.382e-04   1.360e-04    -3.860    -3.867    -0.007     (0)  
   Al(OH)3         1.069e-06   1.069e-06    -5.971    -5.971     0.000     (0)  
   Al(OH)2+        3.535e-08   3.478e-08    -7.452    -7.459    -0.007     (0)  
   AlOH+2          8.861e-12   8.307e-12   -11.053   -11.081    -0.028    -31.99
   Al+3            1.853e-15   1.606e-15   -14.732   -14.794    -0.062    -49.76
H(0)          1.953e-30
   H2              9.767e-31   9.768e-31   -30.010   -30.010     0.000     28.57
Na            1.393e-04
   Na+             1.393e-04   1.371e-04    -3.856    -3.863    -0.007      0.26
   NaOH            5.978e-20   5.979e-20   -19.223   -19.223     0.000     (0)  
O(0)          1.909e-13
   O2              9.547e-14   9.547e-14   -13.020   -13.020     0.000     33.90
Si            4.179e-04
   H4SiO4          4.153e-04   4.154e-04    -3.382    -3.382     0.000     48.82
   H3SiO4-         2.531e-06   2.490e-06    -5.597    -5.604    -0.007     26.31
   H2SiO4-2        3.152e-11   2.955e-11   -10.501   -10.529    -0.028     (0)  

------------------------------Saturation indices-------------------------------

  Phase               SI** log IAP   log K(373 K,   1 atm)

  Al(OH)3(a)       -1.06      5.84    6.90  Al(OH)3
  Albite           -3.69    -17.87  -14.19  NaAlSi3O8
  Chalcedony       -0.53     -3.38   -2.86  SiO2
  Gibbsite          1.09      5.84    4.75  Al(OH)3
  H2(g)           -26.91    -30.01   -3.10  H2
  H2O(g)           -0.01     -0.00    0.00  H2O
  Kaolinite         2.68      4.92    2.23  Al2Si2O5(OH)4
  O2(g)            -9.91    -13.02   -3.11  O2
  Quartz           -0.28     -3.38   -3.10  SiO2
  SiO2(a)          -1.16     -3.38   -2.22  SiO2

**For a gas, SI = log10(fugacity). Fugacity = pressure * phi / 1 atm.
  For ideal gases, phi = 1.

Reaction step 10.

Using solution 1.	
Using kinetics 1.	

Kinetics 1.	

	Time step: 4.73364e+07 seconds  (Incremented time: 4.73364e+08 seconds)

	Rate name       Delta Moles Total Moles   Reactant        Coefficient

	Albite           -1.561e-05   8.451e-04   NaAlSi3O8                 1

-----------------------------Solution composition------------------------------

	Elements           Molality       Moles

	Al                1.549e-04   1.549e-04
	Na                1.549e-04   1.549e-04
	Si                4.647e-04   4.647e-04

----------------------------Description of solution----------------------------

                                       pH  =   6.870      Charge balance
                                       pe  =   6.430      Adjusted to redox equilibrium
      Specific Conductance (µS/cm, 100°C)  = 24
                          Density (g/cm³)  =   0.95839
                               Volume (L)  =   1.04346
                        Activity of water  =   1.000
                 Ionic strength (mol/kgw)  =   1.579e-04
                       Mass of water (kg)  =   1.000e+00
                 Total alkalinity (eq/kg)  =   6.253e-04
                         Temperature (°C)  = 100.00
                  Electrical balance (eq)  =  -5.690e-06
 Percent error, 100*(Cat-|An|)/(Cat+|An|)  =  -1.80
                               Iterations  =   9
                                  Total H  = 1.110124e+02
                                  Total O  = 5.550746e+01

----------------------------Distribution of species----------------------------

                                               Log       Log       Log    mole V
   Species          Molality    Activity  Molality  Activity     Gamma   cm³/mol

   OH-             4.355e-06   4.281e-06    -5.361    -5.368    -0.007     -5.93
   H+              1.372e-07   1.349e-07    -6.863    -6.870    -0.007      0.00
   H2O             5.551e+01   1.000e+00     1.744    -0.000     0.000     18.80
Al            1.549e-04
   Al(OH)4-        1.536e-04   1.511e-04    -3.813    -3.821    -0.007     (0)  
   Al(OH)3         1.210e-06   1.210e-06    -5.917    -5.917     0.000     (0)  
   Al(OH)2+        4.081e-08   4.012e-08    -7.389    -7.397    -0.007     (0)  
   AlOH+2          1.045e-11   9.765e-12   -10.981   -11.010    -0.029    -31.98
   Al+3            2.236e-15   1.924e-15   -14.650   -14.716    -0.065    -49.75
H(0)          1.961e-30
   H2              9.807e-31   9.807e-31   -30.008   -30.008     0.000     28.57
Na            1.549e-04
   Na+             1.549e-04   1.523e-04    -3.810    -3.817    -0.007      0.26
   NaOH            6.519e-20   6.519e-20   -19.186   -19.186     0.000     (0)  
O(0)          1.894e-13
   O2              9.470e-14   9.471e-14   -13.024   -13.024     0.000     33.90
Si            4.647e-04
   H4SiO4          4.619e-04   4.619e-04    -3.335    -3.335     0.000     48.82
   H3SiO4-         2.764e-06   2.718e-06    -5.558    -5.566    -0.007     26.32
   H2SiO4-2        3.388e-11   3.165e-11   -10.470   -10.500    -0.029     (0)  

------------------------------Saturation indices-------------------------------

  Phase               SI** log IAP   log K(373 K,   1 atm)

  Al(OH)3(a)       -1.00      5.89    6.90  Al(OH)3
  Albite           -3.46    -17.64  -14.19  NaAlSi3O8
  Chalcedony       -0.48     -3.34   -2.86  SiO2
  Gibbsite          1.14      5.89    4.75  Al(OH)3
  H2(g)           -26.91    -30.01   -3.10  H2
  H2O(g)           -0.01     -0.00    0.00  H2O
  Kaolinite         2.88      5.12    2.23  Al2Si2O5(OH)4
  O2(g)            -9.91    -13.02   -3.11  O2
  Quartz           -0.24     -3.34   -3.10  SiO2
  SiO2(a)          -1.12     -3.34   -2.22  SiO2

**For a gas, SI = log10(fugacity). Fugacity = pressure * phi / 1 atm.
  For ideal gases, phi = 1.

Reaction step 11.

Using solution 1.	
Using kinetics 1.	

Kinetics 1.	

	Time step: 4.73364e+07 seconds  (Incremented time: 5.207e+08 seconds)

	Rate name       Delta Moles Total Moles   Reactant        Coefficient

	Albite           -1.562e-05   8.295e-04   NaAlSi3O8                 1

-----------------------------Solution composition------------------------------

	Elements           Molality       Moles

	Al                1.705e-04   1.705e-04
	Na                1.705e-04   1.705e-04
	Si                5.116e-04   5.115e-04

----------------------------Description of solution----------------------------

                                       pH  =   6.862      Charge balance
                                       pe  =   6.446      Adjusted to redox equilibrium
      Specific Conductance (µS/cm, 100°C)  = 26
                          Density (g/cm³)  =   0.95839
                               Volume (L)  =   1.04346
                        Activity of water  =   1.000
                 Ionic strength (mol/kgw)  =   1.736e-04
                       Mass of water (kg)  =   1.000e+00
                 Total alkalinity (eq/kg)  =   6.878e-04
                         Temperature (°C)  = 100.00
                  Electrical balance (eq)  =  -5.690e-06
 Percent error, 100*(Cat-|An|)/(Cat+|An|)  =  -1.64
                               Iterations  =   9
                                  Total H  = 1.110124e+02
                                  Total O  = 5.550759e+01

----------------------------Distribution of species----------------------------

                                               Log       Log       Log    mole V
   Species          Molality    Activity  Molality  Activity     Gamma   cm³/mol

   OH-             4.283e-06   4.207e-06    -5.368    -5.376    -0.008     -5.93
   H+              1.397e-07   1.373e-07    -6.855    -6.862    -0.008      0.00
   H2O             5.551e+01   1.000e+00     1.744    -0.000     0.000     18.80
Al            1.705e-04
   Al(OH)4-        1.691e-04   1.661e-04    -3.772    -3.780    -0.008     (0)  
   Al(OH)3         1.354e-06   1.354e-06    -5.868    -5.868     0.000     (0)  
   Al(OH)2+        4.650e-08   4.568e-08    -7.333    -7.340    -0.008     (0)  
   AlOH+2          1.215e-11   1.131e-11   -10.916   -10.946    -0.031    -31.98
   Al+3            2.655e-15   2.268e-15   -14.576   -14.644    -0.068    -49.74
H(0)          1.886e-30
   H2              9.430e-31   9.430e-31   -30.025   -30.025     0.000     28.57
Na            1.705e-04
   Na+             1.705e-04   1.675e-04    -3.768    -3.776    -0.008      0.26
   NaOH            7.047e-20   7.047e-20   -19.152   -19.152     0.000     (0)  
O(0)          2.048e-13
   O2              1.024e-13   1.024e-13   -12.990   -12.990     0.000     33.90
Si            5.116e-04
   H4SiO4          5.086e-04   5.086e-04    -3.294    -3.294     0.000     48.82
   H3SiO4-         2.994e-06   2.941e-06    -5.524    -5.532    -0.008     26.32
   H2SiO4-2        3.614e-11   3.366e-11   -10.442   -10.473    -0.031     (0)  

------------------------------Saturation indices-------------------------------

  Phase               SI** log IAP   log K(373 K,   1 atm)

  Al(OH)3(a)       -0.95      5.94    6.90  Al(OH)3
  Albite           -3.25    -17.44  -14.19  NaAlSi3O8
  Chalcedony       -0.44     -3.29   -2.86  SiO2
  Gibbsite          1.19      5.94    4.75  Al(OH)3
  H2(g)           -26.92    -30.03   -3.10  H2
  H2O(g)           -0.01     -0.00    0.00  H2O
  Kaolinite         3.06      5.30    2.23  Al2Si2O5(OH)4
  O2(g)            -9.87    -12.99   -3.11  O2
  Quartz           -0.20     -3.29   -3.10  SiO2
  SiO2(a)          -1.07     -3.29   -2.22  SiO2

**For a gas, SI = log10(fugacity). Fugacity = pressure * phi / 1 atm.
  For ideal gases, phi = 1.

Reaction step 12.

Using solution 1.	
Using kinetics 1.	

Kinetics 1.	

	Time step: 4.73364e+07 seconds  (Incremented time: 5.68037e+08 seconds)

	Rate name       Delta Moles Total Moles   Reactant        Coefficient

	Albite           -1.564e-05   8.138e-04   NaAlSi3O8                 1

-----------------------------Solution composition------------------------------

	Elements           Molality       Moles

	Al                1.862e-04   1.862e-04
	Na                1.862e-04   1.862e-04
	Si                5.585e-04   5.585e-04

----------------------------Description of solution----------------------------

                                       pH  =   6.855      Charge balance
                                       pe  =   6.452      Adjusted to redox equilibrium
      Specific Conductance (µS/cm, 100°C)  = 28
                          Density (g/cm³)  =   0.95839
                               Volume (L)  =   1.04346
                        Activity of water  =   1.000
                 Ionic strength (mol/kgw)  =   1.892e-04
                       Mass of water (kg)  =   1.000e+00
                 Total alkalinity (eq/kg)  =   7.503e-04
                         Temperature (°C)  = 100.00
                  Electrical balance (eq)  =  -5.690e-06
 Percent error, 100*(Cat-|An|)/(Cat+|An|)  =  -1.50
                               Iterations  =   9
                                  Total H  = 1.110124e+02
                                  Total O  = 5.550771e+01

----------------------------Distribution of species----------------------------

                                               Log       Log       Log    mole V
   Species          Molality    Activity  Molality  Activity     Gamma   cm³/mol

   OH-             4.219e-06   4.141e-06    -5.375    -5.383    -0.008     -5.93
   H+              1.421e-07   1.395e-07    -6.847    -6.855    -0.008      0.00
   H2O             5.551e+01   1.000e+00     1.744    -0.000     0.000     18.80
Al            1.862e-04
   Al(OH)4-        1.846e-04   1.812e-04    -3.734    -3.742    -0.008     (0)  
   Al(OH)3         1.501e-06   1.501e-06    -5.824    -5.824     0.000     (0)  
   Al(OH)2+        5.241e-08   5.145e-08    -7.281    -7.289    -0.008     (0)  
   AlOH+2          1.394e-11   1.295e-11   -10.856   -10.888    -0.032    -31.97
   Al+3            3.107e-15   2.637e-15   -14.508   -14.579    -0.071    -49.73
H(0)          1.895e-30
   H2              9.475e-31   9.475e-31   -30.023   -30.023     0.000     28.57
Na            1.862e-04
   Na+             1.862e-04   1.827e-04    -3.730    -3.738    -0.008      0.26
   NaOH            7.565e-20   7.566e-20   -19.121   -19.121     0.000     (0)  
O(0)          2.029e-13
   O2              1.015e-13   1.015e-13   -12.994   -12.994     0.000     33.90
Si            5.585e-04
   H4SiO4          5.553e-04   5.553e-04    -3.256    -3.255     0.000     48.82
   H3SiO4-         3.219e-06   3.160e-06    -5.492    -5.500    -0.008     26.32
   H2SiO4-2        3.833e-11   3.560e-11   -10.416   -10.449    -0.032     (0)  

------------------------------Saturation indices-------------------------------

  Phase               SI** log IAP   log K(373 K,   1 atm)

  Al(OH)3(a)       -0.91      5.99    6.90  Al(OH)3
  Albite           -3.06    -17.25  -14.19  NaAlSi3O8
  Chalcedony       -0.40     -3.26   -2.86  SiO2
  Gibbsite          1.24      5.99    4.75  Al(OH)3
  H2(g)           -26.92    -30.02   -3.10  H2
  H2O(g)           -0.01     -0.00    0.00  H2O
  Kaolinite         3.23      5.46    2.23  Al2Si2O5(OH)4
  O2(g)            -9.88    -12.99   -3.11  O2
  Quartz           -0.16     -3.26   -3.10  SiO2
  SiO2(a)          -1.04     -3.26   -2.22  SiO2

**For a gas, SI = log10(fugacity). Fugacity = pressure * phi / 1 atm.
  For ideal gases, phi = 1.

Reaction step 13.

Using solution 1.	
Using kinetics 1.	

Kinetics 1.	

	Time step: 4.73364e+07 seconds  (Incremented time: 6.15373e+08 seconds)

	Rate name       Delta Moles Total Moles   Reactant        Coefficient

	Albite           -1.565e-05   7.982e-04   NaAlSi3O8                 1

-----------------------------Solution composition------------------------------

	Elements           Molality       Moles

	Al                2.018e-04   2.018e-04
	Na                2.018e-04   2.018e-04
	Si                6.054e-04   6.054e-04

----------------------------Description of solution----------------------------

                                       pH  =   6.849      Charge balance
                                       pe  =   6.455      Adjusted to redox equilibrium
      Specific Conductance (µS/cm, 100°C)  = 30
                          Density (g/cm³)  =   0.95840
                               Volume (L)  =   1.04346
                        Activity of water  =   1.000
                 Ionic strength (mol/kgw)  =   2.049e-04
                       Mass of water (kg)  =   1.000e+00
                 Total alkalinity (eq/kg)  =   8.129e-04
                         Temperature (°C)  = 100.00
                  Electrical balance (eq)  =  -5.690e-06
 Percent error, 100*(Cat-|An|)/(Cat+|An|)  =  -1.39
                               Iterations  =   8
                                  Total H  = 1.110124e+02
                                  Total O  = 5.550784e+01

----------------------------Distribution of species----------------------------

                                               Log       Log       Log    mole V
   Species          Molality    Activity  Molality  Activity     Gamma   cm³/mol

   OH-             4.160e-06   4.080e-06    -5.381    -5.389    -0.008     -5.93
   H+              1.443e-07   1.416e-07    -6.841    -6.849    -0.008      0.00
   H2O             5.551e+01   1.000e+00     1.744    -0.000     0.000     18.80
Al            2.018e-04
   Al(OH)4-        2.001e-04   1.963e-04    -3.699    -3.707    -0.008     (0)  
   Al(OH)3         1.650e-06   1.650e-06    -5.783    -5.783     0.000     (0)  
   Al(OH)2+        5.852e-08   5.740e-08    -7.233    -7.241    -0.008     (0)  
   AlOH+2          1.583e-11   1.466e-11   -10.800   -10.834    -0.033    -31.97
   Al+3            3.594e-15   3.030e-15   -14.444   -14.519    -0.074    -49.72
H(0)          1.926e-30
   H2              9.631e-31   9.631e-31   -30.016   -30.016     0.000     28.57
Na            2.018e-04
   Na+             2.018e-04   1.979e-04    -3.695    -3.703    -0.008      0.26
   NaOH            8.075e-20   8.075e-20   -19.093   -19.093     0.000     (0)  
O(0)          1.964e-13
   O2              9.819e-14   9.819e-14   -13.008   -13.008     0.000     33.90
Si            6.054e-04
   H4SiO4          6.020e-04   6.020e-04    -3.220    -3.220     0.000     48.82
   H3SiO4-         3.441e-06   3.375e-06    -5.463    -5.472    -0.008     26.32
   H2SiO4-2        4.047e-11   3.747e-11   -10.393   -10.426    -0.033     (0)  

------------------------------Saturation indices-------------------------------

  Phase               SI** log IAP   log K(373 K,   1 atm)

  Al(OH)3(a)       -0.87      6.03    6.90  Al(OH)3
  Albite           -2.88    -17.07  -14.19  NaAlSi3O8
  Chalcedony       -0.36     -3.22   -2.86  SiO2
  Gibbsite          1.28      6.03    4.75  Al(OH)3
  H2(g)           -26.92    -30.02   -3.10  H2
  H2O(g)           -0.01     -0.00    0.00  H2O
  Kaolinite         3.38      5.62    2.23  Al2Si2O5(OH)4
  O2(g)            -9.89    -13.01   -3.11  O2
  Quartz           -0.12     -3.22   -3.10  SiO2
  SiO2(a)          -1.00     -3.22   -2.22  SiO2

**For a gas, SI = log10(fugacity). Fugacity = pressure * phi / 1 atm.
  For ideal gases, phi = 1.

Reaction step 14.

Using solution 1.	
Using kinetics 1.	

Kinetics 1.	

	Time step: 4.73364e+07 seconds  (Incremented time: 6.6271e+08 seconds)

	Rate name       Delta Moles Total Moles   Reactant        Coefficient

	Albite           -1.566e-05   7.825e-04   NaAlSi3O8                 1

-----------------------------Solution composition------------------------------

	Elements           Molality       Moles

	Al                2.175e-04   2.175e-04
	Na                2.175e-04   2.175e-04
	Si                6.524e-04   6.524e-04

----------------------------Description of solution----------------------------

                                       pH  =   6.843      Charge balance
                                       pe  =   6.461      Adjusted to redox equilibrium
      Specific Conductance (µS/cm, 100°C)  = 33
                          Density (g/cm³)  =   0.95840
                               Volume (L)  =   1.04346
                        Activity of water  =   1.000
                 Ionic strength (mol/kgw)  =   2.205e-04
                       Mass of water (kg)  =   1.000e+00
                 Total alkalinity (eq/kg)  =   8.755e-04
                         Temperature (°C)  = 100.00
                  Electrical balance (eq)  =  -5.690e-06
 Percent error, 100*(Cat-|An|)/(Cat+|An|)  =  -1.29
                               Iterations  =   3
                                  Total H  = 1.110124e+02
                                  Total O  = 5.550796e+01

----------------------------Distribution of species----------------------------

                                               Log       Log       Log    mole V
   Species          Molality    Activity  Molality  Activity     Gamma   cm³/mol

   OH-             4.106e-06   4.024e-06    -5.387    -5.395    -0.009     -5.93
   H+              1.464e-07   1.435e-07    -6.834    -6.843    -0.009      0.00
   H2O             5.551e+01   1.000e+00     1.744    -0.000     0.000     18.80
Al            2.175e-04
   Al(OH)4-        2.156e-04   2.113e-04    -3.666    -3.675    -0.009     (0)  
   Al(OH)3         1.801e-06   1.801e-06    -5.745    -5.745     0.000     (0)  
   Al(OH)2+        6.480e-08   6.352e-08    -7.188    -7.197    -0.009     (0)  
   AlOH+2          1.781e-11   1.644e-11   -10.749   -10.784    -0.035    -31.96
   Al+3            4.112e-15   3.447e-15   -14.386   -14.463    -0.077    -49.71
H(0)          1.921e-30
   H2              9.607e-31   9.607e-31   -30.017   -30.017     0.000     28.57
Na            2.175e-04
   Na+             2.175e-04   2.131e-04    -3.663    -3.671    -0.009      0.26
   NaOH            8.577e-20   8.577e-20   -19.067   -19.067     0.000     (0)  
O(0)          1.974e-13
   O2              9.868e-14   9.869e-14   -13.006   -13.006     0.000     33.90
Si            6.524e-04
   H4SiO4          6.487e-04   6.488e-04    -3.188    -3.188     0.000     48.82
   H3SiO4-         3.661e-06   3.588e-06    -5.436    -5.445    -0.009     26.32
   H2SiO4-2        4.255e-11   3.928e-11   -10.371   -10.406    -0.035     (0)  

------------------------------Saturation indices-------------------------------

  Phase               SI** log IAP   log K(373 K,   1 atm)

  Al(OH)3(a)       -0.83      6.07    6.90  Al(OH)3
  Albite           -2.72    -16.91  -14.19  NaAlSi3O8
  Chalcedony       -0.33     -3.19   -2.86  SiO2
  Gibbsite          1.32      6.07    4.75  Al(OH)3
  H2(g)           -26.92    -30.02   -3.10  H2
  H2O(g)           -0.01     -0.00    0.00  H2O
  Kaolinite         3.52      5.76    2.23  Al2Si2O5(OH)4
  O2(g)            -9.89    -13.01   -3.11  O2
  Quartz           -0.09     -3.19   -3.10  SiO2
  SiO2(a)          -0.97     -3.19   -2.22  SiO2

**For a gas, SI = log10(fugacity). Fugacity = pressure * phi / 1 atm.
  For ideal gases, phi = 1.

Reaction step 15.

Using solution 1.	
Using kinetics 1.	

Kinetics 1.	

	Time step: 4.73364e+07 seconds  (Incremented time: 7.10046e+08 seconds)

	Rate name       Delta Moles Total Moles   Reactant        Coefficient

	Albite           -1.566e-05   7.669e-04   NaAlSi3O8                 1

-----------------------------Solution composition------------------------------

	Elements           Molality       Moles

	Al                2.331e-04   2.331e-04
	Na                2.331e-04   2.331e-04
	Si                6.994e-04   6.994e-04

----------------------------Description of solution----------------------------

                                       pH  =   6.837      Charge balance
                                       pe  =   6.464      Adjusted to redox equilibrium
      Specific Conductance (µS/cm, 100°C)  = 35
                          Density (g/cm³)  =   0.95841
                               Volume (L)  =   1.04346
                        Activity of water  =   1.000
                 Ionic strength (mol/kgw)  =   2.362e-04
                       Mass of water (kg)  =   1.000e+00
                 Total alkalinity (eq/kg)  =   9.382e-04
                         Temperature (°C)  = 100.00
                  Electrical balance (eq)  =  -5.690e-06
 Percent error, 100*(Cat-|An|)/(Cat+|An|)  =  -1.20
                               Iterations  =   3
                                  Total H  = 1.110124e+02
                                  Total O  = 5.550809e+01

----------------------------Distribution of species----------------------------

                                               Log       Log       Log    mole V
   Species          Molality    Activity  Molality  Activity     Gamma   cm³/mol

   OH-             4.057e-06   3.973e-06    -5.392    -5.401    -0.009     -5.93
   H+              1.484e-07   1.454e-07    -6.829    -6.837    -0.009      0.00
   H2O             5.551e+01   1.000e+00     1.744    -0.000     0.000     18.80
Al            2.331e-04
   Al(OH)4-        2.311e-04   2.264e-04    -3.636    -3.645    -0.009     (0)  
   Al(OH)3         1.953e-06   1.954e-06    -5.709    -5.709     0.000     (0)  
   Al(OH)2+        7.125e-08   6.980e-08    -7.147    -7.156    -0.009     (0)  
   AlOH+2          1.988e-11   1.830e-11   -10.702   -10.738    -0.036    -31.96
   Al+3            4.663e-15   3.885e-15   -14.331   -14.411    -0.079    -49.70
H(0)          1.949e-30
   H2              9.746e-31   9.747e-31   -30.011   -30.011     0.000     28.57
Na            2.331e-04
   Na+             2.331e-04   2.283e-04    -3.632    -3.641    -0.009      0.26
   NaOH            9.072e-20   9.073e-20   -19.042   -19.042     0.000     (0)  
O(0)          1.917e-13
   O2              9.587e-14   9.588e-14   -13.018   -13.018     0.000     33.90
Si            6.994e-04
   H4SiO4          6.955e-04   6.955e-04    -3.158    -3.158     0.000     48.82
   H3SiO4-         3.878e-06   3.798e-06    -5.411    -5.420    -0.009     26.32
   H2SiO4-2        4.459e-11   4.106e-11   -10.351   -10.387    -0.036     (0)  

------------------------------Saturation indices-------------------------------

  Phase               SI** log IAP   log K(373 K,   1 atm)

  Al(OH)3(a)       -0.79      6.10    6.90  Al(OH)3
  Albite           -2.57    -16.76  -14.19  NaAlSi3O8
  Chalcedony       -0.30     -3.16   -2.86  SiO2
  Gibbsite          1.35      6.10    4.75  Al(OH)3
  H2(g)           -26.91    -30.01   -3.10  H2
  H2O(g)           -0.01     -0.00    0.00  H2O
  Kaolinite         3.65      5.89    2.23  Al2Si2O5(OH)4
  O2(g)            -9.90    -13.02   -3.11  O2
  Quartz           -0.06     -3.16   -3.10  SiO2
  SiO2(a)          -0.94     -3.16   -2.22  SiO2

**For a gas, SI = log10(fugacity). Fugacity = pressure * phi / 1 atm.
  For ideal gases, phi = 1.

Reaction step 16.

Using solution 1.	
Using kinetics 1.	

Kinetics 1.	

	Time step: 4.73364e+07 seconds  (Incremented time: 7.57382e+08 seconds)

	Rate name       Delta Moles Total Moles   Reactant        Coefficient

	Albite           -1.566e-05   7.512e-04   NaAlSi3O8                 1

-----------------------------Solution composition------------------------------

	Elements           Molality       Moles

	Al                2.488e-04   2.488e-04
	Na                2.488e-04   2.488e-04
	Si                7.464e-04   7.463e-04

----------------------------Description of solution----------------------------

                                       pH  =   6.832      Charge balance
                                       pe  =   6.463      Adjusted to redox equilibrium
      Specific Conductance (µS/cm, 100°C)  = 37
                          Density (g/cm³)  =   0.95841
                               Volume (L)  =   1.04346
                        Activity of water  =   1.000
                 Ionic strength (mol/kgw)  =   2.519e-04
                       Mass of water (kg)  =   1.000e+00
                 Total alkalinity (eq/kg)  =   1.001e-03
                         Temperature (°C)  = 100.00
                  Electrical balance (eq)  =  -5.690e-06
 Percent error, 100*(Cat-|An|)/(Cat+|An|)  =  -1.13
                               Iterations  =   3
                                  Total H  = 1.110124e+02
                                  Total O  = 5.550821e+01

----------------------------Distribution of species----------------------------

                                               Log       Log       Log    mole V
   Species          Molality    Activity  Molality  Activity     Gamma   cm³/mol

   OH-             4.012e-06   3.926e-06    -5.397    -5.406    -0.009     -5.93
   H+              1.502e-07   1.471e-07    -6.823    -6.832    -0.009      0.00
   H2O             5.551e+01   1.000e+00     1.744    -0.000     0.000     18.80
Al            2.488e-04
   Al(OH)4-        2.466e-04   2.414e-04    -3.608    -3.617    -0.009     (0)  
   Al(OH)3         2.108e-06   2.108e-06    -5.676    -5.676     0.000     (0)  
   Al(OH)2+        7.786e-08   7.621e-08    -7.109    -7.118    -0.009     (0)  
   AlOH+2          2.202e-11   2.022e-11   -10.657   -10.694    -0.037    -31.96
   Al+3            5.243e-15   4.344e-15   -14.280   -14.362    -0.082    -49.69
H(0)          1.998e-30
   H2              9.988e-31   9.988e-31   -30.001   -30.001     0.000     28.57
Na            2.488e-04
   Na+             2.488e-04   2.435e-04    -3.604    -3.613    -0.009      0.26
   NaOH            9.561e-20   9.562e-20   -19.019   -19.019     0.000     (0)  
O(0)          1.826e-13
   O2              9.129e-14   9.130e-14   -13.040   -13.040     0.000     33.90
Si            7.464e-04
   H4SiO4          7.423e-04   7.423e-04    -3.129    -3.129     0.000     48.82
   H3SiO4-         4.092e-06   4.006e-06    -5.388    -5.397    -0.009     26.32
   H2SiO4-2        4.660e-11   4.279e-11   -10.332   -10.369    -0.037     (0)  

------------------------------Saturation indices-------------------------------

  Phase               SI** log IAP   log K(373 K,   1 atm)

  Al(OH)3(a)       -0.76      6.13    6.90  Al(OH)3
  Albite           -2.43    -16.62  -14.19  NaAlSi3O8
  Chalcedony       -0.27     -3.13   -2.86  SiO2
  Gibbsite          1.38      6.13    4.75  Al(OH)3
  H2(g)           -26.90    -30.00   -3.10  H2
  H2O(g)           -0.01     -0.00    0.00  H2O
  Kaolinite         3.78      6.01    2.23  Al2Si2O5(OH)4
  O2(g)            -9.92    -13.04   -3.11  O2
  Quartz           -0.03     -3.13   -3.10  SiO2
  SiO2(a)          -0.91     -3.13   -2.22  SiO2

**For a gas, SI = log10(fugacity). Fugacity = pressure * phi / 1 atm.
  For ideal gases, phi = 1.

Reaction step 17.

Using solution 1.	
Using kinetics 1.	

Kinetics 1.	

	Time step: 4.73364e+07 seconds  (Incremented time: 8.04719e+08 seconds)

	Rate name       Delta Moles Total Moles   Reactant        Coefficient

	Albite           -1.566e-05   7.356e-04   NaAlSi3O8                 1

-----------------------------Solution composition------------------------------

	Elements           Molality       Moles

	Al                2.645e-04   2.644e-04
	Na                2.645e-04   2.644e-04
	Si                7.934e-04   7.933e-04

----------------------------Description of solution----------------------------

                                       pH  =   6.828      Charge balance
                                       pe  =   6.466      Adjusted to redox equilibrium
      Specific Conductance (µS/cm, 100°C)  = 39
                          Density (g/cm³)  =   0.95841
                               Volume (L)  =   1.04346
                        Activity of water  =   1.000
                 Ionic strength (mol/kgw)  =   2.675e-04
                       Mass of water (kg)  =   1.000e+00
                 Total alkalinity (eq/kg)  =   1.063e-03
                         Temperature (°C)  = 100.00
                  Electrical balance (eq)  =  -5.690e-06
 Percent error, 100*(Cat-|An|)/(Cat+|An|)  =  -1.06
                               Iterations  =   3
                                  Total H  = 1.110124e+02
                                  Total O  = 5.550834e+01

----------------------------Distribution of species----------------------------

                                               Log       Log       Log    mole V
   Species          Molality    Activity  Molality  Activity     Gamma   cm³/mol

   OH-             3.970e-06   3.883e-06    -5.401    -5.411    -0.010     -5.93
   H+              1.520e-07   1.488e-07    -6.818    -6.828    -0.009      0.00
   H2O             5.551e+01   1.000e+00     1.744    -0.000     0.000     18.80
Al            2.645e-04
   Al(OH)4-        2.621e-04   2.564e-04    -3.582    -3.591    -0.010     (0)  
   Al(OH)3         2.264e-06   2.264e-06    -5.645    -5.645     0.000     (0)  
   Al(OH)2+        8.460e-08   8.276e-08    -7.073    -7.082    -0.010     (0)  
   AlOH+2          2.424e-11   2.221e-11   -10.615   -10.654    -0.038    -31.95
   Al+3            5.853e-15   4.823e-15   -14.233   -14.317    -0.084    -49.69
H(0)          2.016e-30
   H2              1.008e-30   1.008e-30   -29.997   -29.997     0.000     28.57
Na            2.645e-04
   Na+             2.645e-04   2.587e-04    -3.578    -3.587    -0.010      0.26
   NaOH            1.004e-19   1.005e-19   -18.998   -18.998     0.000     (0)  
O(0)          1.793e-13
   O2              8.965e-14   8.966e-14   -13.047   -13.047     0.000     33.90
Si            7.934e-04
   H4SiO4          7.890e-04   7.891e-04    -3.103    -3.103     0.000     48.82
   H3SiO4-         4.305e-06   4.211e-06    -5.366    -5.376    -0.010     26.32
   H2SiO4-2        4.857e-11   4.449e-11   -10.314   -10.352    -0.038     (0)  

------------------------------Saturation indices-------------------------------

  Phase               SI** log IAP   log K(373 K,   1 atm)

  Al(OH)3(a)       -0.73      6.17    6.90  Al(OH)3
  Albite           -2.30    -16.49  -14.19  NaAlSi3O8
  Chalcedony       -0.25     -3.10   -2.86  SiO2
  Gibbsite          1.41      6.17    4.75  Al(OH)3
  H2(g)           -26.90    -30.00   -3.10  H2
  H2O(g)           -0.01     -0.00    0.00  H2O
  Kaolinite         3.89      6.13    2.23  Al2Si2O5(OH)4
  O2(g)            -9.93    -13.05   -3.11  O2
  Quartz           -0.00     -3.10   -3.10  SiO2
  SiO2(a)          -0.88     -3.10   -2.22  SiO2

**For a gas, SI = log10(fugacity). Fugacity = pressure * phi / 1 atm.
  For ideal gases, phi = 1.

Reaction step 18.

Using solution 1.	
Using kinetics 1.	

Kinetics 1.	

	Time step: 4.73364e+07 seconds  (Incremented time: 8.52055e+08 seconds)

	Rate name       Delta Moles Total Moles   Reactant        Coefficient

	Albite           -1.565e-05   7.199e-04   NaAlSi3O8                 1

-----------------------------Solution composition------------------------------

	Elements           Molality       Moles

	Al                2.801e-04   2.801e-04
	Na                2.801e-04   2.801e-04
	Si                8.403e-04   8.403e-04

----------------------------Description of solution----------------------------

                                       pH  =   6.823      Charge balance
                                       pe  =   6.464      Adjusted to redox equilibrium
      Specific Conductance (µS/cm, 100°C)  = 41
                          Density (g/cm³)  =   0.95842
                               Volume (L)  =   1.04346
                        Activity of water  =   1.000
                 Ionic strength (mol/kgw)  =   2.832e-04
                       Mass of water (kg)  =   1.000e+00
                 Total alkalinity (eq/kg)  =   1.126e-03
                         Temperature (°C)  = 100.00
                  Electrical balance (eq)  =  -5.690e-06
 Percent error, 100*(Cat-|An|)/(Cat+|An|)  =  -1.00
                               Iterations  =  20
                                  Total H  = 1.110124e+02
                                  Total O  = 5.550846e+01

----------------------------Distribution of species----------------------------

                                               Log       Log       Log    mole V
   Species          Molality    Activity  Molality  Activity     Gamma   cm³/mol

   OH-             3.932e-06   3.843e-06    -5.405    -5.415    -0.010     -5.92
   H+              1.537e-07   1.503e-07    -6.813    -6.823    -0.010      0.00
   H2O             5.551e+01   1.000e+00     1.744    -0.000     0.000     18.80
Al            2.801e-04
   Al(OH)4-        2.776e-04   2.714e-04    -3.557    -3.566    -0.010     (0)  
   Al(OH)3         2.421e-06   2.421e-06    -5.616    -5.616     0.000     (0)  
   Al(OH)2+        9.147e-08   8.943e-08    -7.039    -7.049    -0.010     (0)  
   AlOH+2          2.653e-11   2.424e-11   -10.576   -10.615    -0.039    -31.95
   Al+3            6.491e-15   5.320e-15   -14.188   -14.274    -0.086    -49.68
H(0)          2.076e-30
   H2              1.038e-30   1.038e-30   -29.984   -29.984     0.000     28.57
Na            2.801e-04
   Na+             2.801e-04   2.738e-04    -3.553    -3.563    -0.010      0.27
   NaOH            1.052e-19   1.052e-19   -18.978   -18.978     0.000     (0)  
O(0)          1.690e-13
   O2              8.452e-14   8.453e-14   -13.073   -13.073     0.000     33.90
Si            8.403e-04
   H4SiO4          8.358e-04   8.358e-04    -3.078    -3.078     0.000     48.82
   H3SiO4-         4.516e-06   4.415e-06    -5.345    -5.355    -0.010     26.32
   H2SiO4-2        5.052e-11   4.616e-11   -10.297   -10.336    -0.039     (0)  

------------------------------Saturation indices-------------------------------

  Phase               SI** log IAP   log K(373 K,   1 atm)

  Al(OH)3(a)       -0.70      6.19    6.90  Al(OH)3
  Albite           -2.18    -16.36  -14.19  NaAlSi3O8
  Chalcedony       -0.22     -3.08   -2.86  SiO2
  Gibbsite          1.44      6.19    4.75  Al(OH)3
  H2(g)           -26.88    -29.98   -3.10  H2
  H2O(g)           -0.01     -0.00    0.00  H2O
  Kaolinite         4.00      6.23    2.23  Al2Si2O5(OH)4
  O2(g)            -9.96    -13.07   -3.11  O2
  Quartz            0.02     -3.08   -3.10  SiO2
  SiO2(a)          -0.86     -3.08   -2.22  SiO2

**For a gas, SI = log10(fugacity). Fugacity = pressure * phi / 1 atm.
  For ideal gases, phi = 1.

Reaction step 19.

Using solution 1.	
Using kinetics 1.	

Kinetics 1.	

	Time step: 4.73364e+07 seconds  (Incremented time: 8.99392e+08 seconds)

	Rate name       Delta Moles Total Moles   Reactant        Coefficient

	Albite           -1.563e-05   7.043e-04   NaAlSi3O8                 1

-----------------------------Solution composition------------------------------

	Elements           Molality       Moles

	Al                2.957e-04   2.957e-04
	Na                2.957e-04   2.957e-04
	Si                8.872e-04   8.872e-04

----------------------------Description of solution----------------------------

                                       pH  =   6.819      Charge balance
                                       pe  =   6.472      Adjusted to redox equilibrium
      Specific Conductance (µS/cm, 100°C)  = 44
                          Density (g/cm³)  =   0.95842
                               Volume (L)  =   1.04346
                        Activity of water  =   1.000
                 Ionic strength (mol/kgw)  =   2.988e-04
                       Mass of water (kg)  =   1.000e+00
                 Total alkalinity (eq/kg)  =   1.189e-03
                         Temperature (°C)  = 100.00
                  Electrical balance (eq)  =  -5.690e-06
 Percent error, 100*(Cat-|An|)/(Cat+|An|)  =  -0.95
                               Iterations  =   7
                                  Total H  = 1.110124e+02
                                  Total O  = 5.550859e+01

----------------------------Distribution of species----------------------------

                                               Log       Log       Log    mole V
   Species          Molality    Activity  Molality  Activity     Gamma   cm³/mol

   OH-             3.896e-06   3.806e-06    -5.409    -5.419    -0.010     -5.92
   H+              1.552e-07   1.518e-07    -6.809    -6.819    -0.010      0.00
   H2O             5.551e+01   1.000e+00     1.744    -0.000     0.000     18.80
Al            2.957e-04
   Al(OH)4-        2.931e-04   2.863e-04    -3.533    -3.543    -0.010     (0)  
   Al(OH)3         2.579e-06   2.579e-06    -5.589    -5.588     0.000     (0)  
   Al(OH)2+        9.845e-08   9.620e-08    -7.007    -7.017    -0.010     (0)  
   AlOH+2          2.889e-11   2.633e-11   -10.539   -10.580    -0.040    -31.94
   Al+3            7.156e-15   5.835e-15   -14.145   -14.234    -0.089    -49.67
H(0)          2.045e-30
   H2              1.023e-30   1.023e-30   -29.990   -29.990     0.000     28.57
Na            2.957e-04
   Na+             2.957e-04   2.889e-04    -3.529    -3.539    -0.010      0.27
   NaOH            1.100e-19   1.100e-19   -18.959   -18.959     0.000     (0)  
O(0)          1.741e-13
   O2              8.707e-14   8.708e-14   -13.060   -13.060     0.000     33.90
Si            8.872e-04
   H4SiO4          8.825e-04   8.825e-04    -3.054    -3.054     0.000     48.82
   H3SiO4-         4.725e-06   4.616e-06    -5.326    -5.336    -0.010     26.33
   H2SiO4-2        5.245e-11   4.781e-11   -10.280   -10.320    -0.040     (0)  

------------------------------Saturation indices-------------------------------

  Phase               SI** log IAP   log K(373 K,   1 atm)

  Al(OH)3(a)       -0.67      6.22    6.90  Al(OH)3
  Albite           -2.06    -16.25  -14.19  NaAlSi3O8
  Chalcedony       -0.20     -3.05   -2.86  SiO2
  Gibbsite          1.47      6.22    4.75  Al(OH)3
  H2(g)           -26.89    -29.99   -3.10  H2
  H2O(g)           -0.01     -0.00    0.00  H2O
  Kaolinite         4.10      6.34    2.23  Al2Si2O5(OH)4
  O2(g)            -9.95    -13.06   -3.11  O2
  Quartz            0.04     -3.05   -3.10  SiO2
  SiO2(a)          -0.84     -3.05   -2.22  SiO2

**For a gas, SI = log10(fugacity). Fugacity = pressure * phi / 1 atm.
  For ideal gases, phi = 1.

Reaction step 20.

Using solution 1.	
Using kinetics 1.	

Kinetics 1.	

	Time step: 4.73364e+07 seconds  (Incremented time: 9.46728e+08 seconds)

	Rate name       Delta Moles Total Moles   Reactant        Coefficient

	Albite           -1.561e-05   6.887e-04   NaAlSi3O8                 1

-----------------------------Solution composition------------------------------

	Elements           Molality       Moles

	Al                3.113e-04   3.113e-04
	Na                3.113e-04   3.113e-04
	Si                9.340e-04   9.340e-04

----------------------------Description of solution----------------------------

                                       pH  =   6.815      Charge balance
                                       pe  =   6.479      Adjusted to redox equilibrium
      Specific Conductance (µS/cm, 100°C)  = 46
                          Density (g/cm³)  =   0.95843
                               Volume (L)  =   1.04346
                        Activity of water  =   1.000
                 Ionic strength (mol/kgw)  =   3.144e-04
                       Mass of water (kg)  =   1.000e+00
                 Total alkalinity (eq/kg)  =   1.251e-03
                         Temperature (°C)  = 100.00
                  Electrical balance (eq)  =  -5.690e-06
 Percent error, 100*(Cat-|An|)/(Cat+|An|)  =  -0.90
                               Iterations  =   7
                                  Total H  = 1.110124e+02
                                  Total O  = 5.550871e+01

----------------------------Distribution of species----------------------------

                                               Log       Log       Log    mole V
   Species          Molality    Activity  Molality  Activity     Gamma   cm³/mol

   OH-             3.864e-06   3.772e-06    -5.413    -5.423    -0.010     -5.92
   H+              1.567e-07   1.531e-07    -6.805    -6.815    -0.010      0.00
   H2O             5.551e+01   1.000e+00     1.744    -0.000     0.000     18.80
Al            3.113e-04
   Al(OH)4-        3.085e-04   3.012e-04    -3.511    -3.521    -0.010     (0)  
   Al(OH)3         2.738e-06   2.738e-06    -5.563    -5.562     0.000     (0)  
   Al(OH)2+        1.055e-07   1.031e-07    -6.977    -6.987    -0.010     (0)  
   AlOH+2          3.130e-11   2.847e-11   -10.504   -10.546    -0.041    -31.94
   Al+3            7.846e-15   6.365e-15   -14.105   -14.196    -0.091    -49.66
H(0)          2.015e-30
   H2              1.008e-30   1.008e-30   -29.997   -29.997     0.000     28.57
Na            3.113e-04
   Na+             3.113e-04   3.040e-04    -3.507    -3.517    -0.010      0.27
   NaOH            1.147e-19   1.147e-19   -18.941   -18.941     0.000     (0)  
O(0)          1.794e-13
   O2              8.968e-14   8.969e-14   -13.047   -13.047     0.000     33.90
Si            9.340e-04
   H4SiO4          9.291e-04   9.292e-04    -3.032    -3.032     0.000     48.82
   H3SiO4-         4.933e-06   4.816e-06    -5.307    -5.317    -0.010     26.33
   H2SiO4-2        5.435e-11   4.943e-11   -10.265   -10.306    -0.041     (0)  

------------------------------Saturation indices-------------------------------

  Phase               SI** log IAP   log K(373 K,   1 atm)

  Al(OH)3(a)       -0.65      6.25    6.90  Al(OH)3
  Albite           -1.95    -16.13  -14.19  NaAlSi3O8
  Chalcedony       -0.18     -3.03   -2.86  SiO2
  Gibbsite          1.50      6.25    4.75  Al(OH)3
[...]

  Al(OH)3(a)       -0.20      6.69    6.90  Al(OH)3
  Albite           -0.00    -14.19  -14.19  NaAlSi3O8
  Chalcedony        0.22     -2.64   -2.86  SiO2
  Gibbsite          1.94      6.69    4.75  Al(OH)3
  H2(g)           -26.91    -30.01   -3.10  H2
  H2O(g)           -0.01     -0.00    0.00  H2O
  Kaolinite         5.87      8.10    2.23  Al2Si2O5(OH)4
  O2(g)            -9.90    -13.02   -3.11  O2
  Quartz            0.46     -2.64   -3.10  SiO2
  SiO2(a)          -0.42     -2.64   -2.22  SiO2

**For a gas, SI = log10(fugacity). Fugacity = pressure * phi / 1 atm.
  For ideal gases, phi = 1.

Reaction step 96.

Using solution 1.	
Using kinetics 1.	

Kinetics 1.	

	Time step: 4.73364e+07 seconds  (Incremented time: 4.54429e+09 seconds)

	Rate name       Delta Moles Total Moles   Reactant        Coefficient

	Albite           -9.470e-08   2.340e-04   NaAlSi3O8                 1

-----------------------------Solution composition------------------------------

	Elements           Molality       Moles

	Al                7.661e-04   7.660e-04
	Na                7.661e-04   7.660e-04
	Si                2.298e-03   2.298e-03

----------------------------Description of solution----------------------------

                                       pH  =   6.756      Charge balance
                                       pe  =   6.547      Adjusted to redox equilibrium
      Specific Conductance (µS/cm, 100°C)  = 110
                          Density (g/cm³)  =   0.95854
                               Volume (L)  =   1.04346
                        Activity of water  =   1.000
                 Ionic strength (mol/kgw)  =   7.695e-04
                       Mass of water (kg)  =   9.999e-01
                 Total alkalinity (eq/kg)  =   3.070e-03
                         Temperature (°C)  = 100.00
                  Electrical balance (eq)  =  -5.690e-06
 Percent error, 100*(Cat-|An|)/(Cat+|An|)  =  -0.37
                               Iterations  =   3
                                  Total H  = 1.110124e+02
                                  Total O  = 5.551235e+01

----------------------------Distribution of species----------------------------

                                               Log       Log       Log    mole V
   Species          Molality    Activity  Molality  Activity     Gamma   cm³/mol

   OH-             3.417e-06   3.293e-06    -5.466    -5.482    -0.016     -5.90
   H+              1.817e-07   1.754e-07    -6.741    -6.756    -0.015      0.00
   H2O             5.551e+01   9.999e-01     1.744    -0.000     0.000     18.80
Al            7.661e-04
   Al(OH)4-        7.582e-04   7.308e-04    -3.120    -3.136    -0.016     (0)  
   Al(OH)3         7.608e-06   7.610e-06    -5.119    -5.119     0.000     (0)  
   Al(OH)2+        3.402e-07   3.280e-07    -6.468    -6.484    -0.016     (0)  
   AlOH+2          1.201e-10   1.038e-10    -9.921    -9.984    -0.063    -31.87
   Al+3            3.653e-14   2.658e-14   -13.437   -13.575    -0.138    -49.51
H(0)          1.935e-30
   H2              9.676e-31   9.678e-31   -30.014   -30.014     0.000     28.57
Na            7.661e-04
   Na+             7.661e-04   7.385e-04    -3.116    -3.132    -0.016      0.29
   NaOH            2.431e-19   2.432e-19   -18.614   -18.614     0.000     (0)  
O(0)          1.944e-13
   O2              9.722e-14   9.724e-14   -13.012   -13.012     0.000     33.90
Si            2.298e-03
   H4SiO4          2.288e-03   2.288e-03    -2.641    -2.641     0.000     48.82
   H3SiO4-         1.074e-05   1.035e-05    -4.969    -4.985    -0.016     26.35
   H2SiO4-2        1.073e-10   9.278e-11    -9.969   -10.033    -0.063     (0)  

------------------------------Saturation indices-------------------------------

  Phase               SI** log IAP   log K(373 K,   1 atm)

  Al(OH)3(a)       -0.20      6.69    6.90  Al(OH)3
  Albite           -0.00    -14.19  -14.19  NaAlSi3O8
  Chalcedony        0.22     -2.64   -2.86  SiO2
  Gibbsite          1.94      6.69    4.75  Al(OH)3
  H2(g)           -26.91    -30.01   -3.10  H2
  H2O(g)           -0.01     -0.00    0.00  H2O
  Kaolinite         5.87      8.10    2.23  Al2Si2O5(OH)4
  O2(g)            -9.90    -13.01   -3.11  O2
  Quartz            0.46     -2.64   -3.10  SiO2
  SiO2(a)          -0.42     -2.64   -2.22  SiO2

**For a gas, SI = log10(fugacity). Fugacity = pressure * phi / 1 atm.
  For ideal gases, phi = 1.

Reaction step 97.

Using solution 1.	
Using kinetics 1.	

Kinetics 1.	

	Time step: 4.73364e+07 seconds  (Incremented time: 4.59163e+09 seconds)

	Rate name       Delta Moles Total Moles   Reactant        Coefficient

	Albite           -8.789e-08   2.339e-04   NaAlSi3O8                 1

-----------------------------Solution composition------------------------------

	Elements           Molality       Moles

	Al                7.662e-04   7.661e-04
	Na                7.662e-04   7.661e-04
	Si                2.299e-03   2.298e-03

----------------------------Description of solution----------------------------

                                       pH  =   6.756      Charge balance
                                       pe  =   6.542      Adjusted to redox equilibrium
      Specific Conductance (µS/cm, 100°C)  = 110
                          Density (g/cm³)  =   0.95854
                               Volume (L)  =   1.04346
                        Activity of water  =   1.000
                 Ionic strength (mol/kgw)  =   7.696e-04
                       Mass of water (kg)  =   9.999e-01
                 Total alkalinity (eq/kg)  =   3.070e-03
                         Temperature (°C)  = 100.00
                  Electrical balance (eq)  =  -5.690e-06
 Percent error, 100*(Cat-|An|)/(Cat+|An|)  =  -0.37
                               Iterations  =   1
                                  Total H  = 1.110124e+02
                                  Total O  = 5.551235e+01

----------------------------Distribution of species----------------------------

                                               Log       Log       Log    mole V
   Species          Molality    Activity  Molality  Activity     Gamma   cm³/mol

   OH-             3.417e-06   3.293e-06    -5.466    -5.482    -0.016     -5.90
   H+              1.817e-07   1.754e-07    -6.741    -6.756    -0.015      0.00
   H2O             5.551e+01   9.999e-01     1.744    -0.000     0.000     18.80
Al            7.662e-04
   Al(OH)4-        7.582e-04   7.309e-04    -3.120    -3.136    -0.016     (0)  
   Al(OH)3         7.609e-06   7.611e-06    -5.119    -5.119     0.000     (0)  
   Al(OH)2+        3.403e-07   3.281e-07    -6.468    -6.484    -0.016     (0)  
   AlOH+2          1.201e-10   1.038e-10    -9.920    -9.984    -0.063    -31.87
   Al+3            3.653e-14   2.659e-14   -13.437   -13.575    -0.138    -49.51
H(0)          1.980e-30
   H2              9.898e-31   9.900e-31   -30.004   -30.004     0.000     28.57
Na            7.662e-04
   Na+             7.662e-04   7.385e-04    -3.116    -3.132    -0.016      0.29
   NaOH            2.432e-19   2.432e-19   -18.614   -18.614     0.000     (0)  
O(0)          1.858e-13
   O2              9.291e-14   9.293e-14   -13.032   -13.032     0.000     33.90
Si            2.299e-03
   H4SiO4          2.288e-03   2.288e-03    -2.641    -2.641     0.000     48.82
   H3SiO4-         1.075e-05   1.036e-05    -4.969    -4.985    -0.016     26.35
   H2SiO4-2        1.074e-10   9.279e-11    -9.969   -10.033    -0.063     (0)  

------------------------------Saturation indices-------------------------------

  Phase               SI** log IAP   log K(373 K,   1 atm)

  Al(OH)3(a)       -0.20      6.69    6.90  Al(OH)3
  Albite           -0.00    -14.19  -14.19  NaAlSi3O8
  Chalcedony        0.22     -2.64   -2.86  SiO2
  Gibbsite          1.94      6.69    4.75  Al(OH)3
  H2(g)           -26.90    -30.00   -3.10  H2
  H2O(g)           -0.01     -0.00    0.00  H2O
  Kaolinite         5.87      8.10    2.23  Al2Si2O5(OH)4
  O2(g)            -9.92    -13.03   -3.11  O2
  Quartz            0.46     -2.64   -3.10  SiO2
  SiO2(a)          -0.42     -2.64   -2.22  SiO2

**For a gas, SI = log10(fugacity). Fugacity = pressure * phi / 1 atm.
  For ideal gases, phi = 1.

Reaction step 98.

Using solution 1.	
Using kinetics 1.	

Kinetics 1.	

	Time step: 4.73364e+07 seconds  (Incremented time: 4.63897e+09 seconds)

	Rate name       Delta Moles Total Moles   Reactant        Coefficient

	Albite           -7.886e-08   2.338e-04   NaAlSi3O8                 1

-----------------------------Solution composition------------------------------

	Elements           Molality       Moles

	Al                7.663e-04   7.662e-04
	Na                7.663e-04   7.662e-04
	Si                2.299e-03   2.299e-03

----------------------------Description of solution----------------------------

                                       pH  =   6.756      Charge balance
                                       pe  =   6.542      Adjusted to redox equilibrium
      Specific Conductance (µS/cm, 100°C)  = 110
                          Density (g/cm³)  =   0.95854
                               Volume (L)  =   1.04346
                        Activity of water  =   1.000
                 Ionic strength (mol/kgw)  =   7.696e-04
                       Mass of water (kg)  =   9.999e-01
                 Total alkalinity (eq/kg)  =   3.071e-03
                         Temperature (°C)  = 100.00
                  Electrical balance (eq)  =  -5.690e-06
 Percent error, 100*(Cat-|An|)/(Cat+|An|)  =  -0.37
                               Iterations  =   1
                                  Total H  = 1.110124e+02
                                  Total O  = 5.551235e+01

----------------------------Distribution of species----------------------------

                                               Log       Log       Log    mole V
   Species          Molality    Activity  Molality  Activity     Gamma   cm³/mol

   OH-             3.417e-06   3.293e-06    -5.466    -5.482    -0.016     -5.90
   H+              1.817e-07   1.754e-07    -6.741    -6.756    -0.015      0.00
   H2O             5.551e+01   9.999e-01     1.744    -0.000     0.000     18.80
Al            7.663e-04
   Al(OH)4-        7.583e-04   7.309e-04    -3.120    -3.136    -0.016     (0)  
   Al(OH)3         7.610e-06   7.612e-06    -5.119    -5.119     0.000     (0)  
   Al(OH)2+        3.403e-07   3.281e-07    -6.468    -6.484    -0.016     (0)  
   AlOH+2          1.201e-10   1.038e-10    -9.920    -9.984    -0.063    -31.87
   Al+3            3.654e-14   2.659e-14   -13.437   -13.575    -0.138    -49.51
H(0)          1.976e-30
   H2              9.879e-31   9.881e-31   -30.005   -30.005     0.000     28.57
Na            7.663e-04
   Na+             7.663e-04   7.386e-04    -3.116    -3.132    -0.016      0.29
   NaOH            2.432e-19   2.432e-19   -18.614   -18.614     0.000     (0)  
O(0)          1.865e-13
   O2              9.327e-14   9.328e-14   -13.030   -13.030     0.000     33.90
Si            2.299e-03
   H4SiO4          2.288e-03   2.288e-03    -2.641    -2.640     0.000     48.82
   H3SiO4-         1.075e-05   1.036e-05    -4.969    -4.985    -0.016     26.35
   H2SiO4-2        1.074e-10   9.279e-11    -9.969   -10.032    -0.063     (0)  

------------------------------Saturation indices-------------------------------

  Phase               SI** log IAP   log K(373 K,   1 atm)

  Al(OH)3(a)       -0.20      6.69    6.90  Al(OH)3
  Albite           -0.00    -14.19  -14.19  NaAlSi3O8
  Chalcedony        0.22     -2.64   -2.86  SiO2
  Gibbsite          1.94      6.69    4.75  Al(OH)3
  H2(g)           -26.90    -30.01   -3.10  H2
  H2O(g)           -0.01     -0.00    0.00  H2O
  Kaolinite         5.87      8.10    2.23  Al2Si2O5(OH)4
  O2(g)            -9.92    -13.03   -3.11  O2
  Quartz            0.46     -2.64   -3.10  SiO2
  SiO2(a)          -0.42     -2.64   -2.22  SiO2

**For a gas, SI = log10(fugacity). Fugacity = pressure * phi / 1 atm.
  For ideal gases, phi = 1.

Reaction step 99.

Using solution 1.	
Using kinetics 1.	

Kinetics 1.	

	Time step: 4.73364e+07 seconds  (Incremented time: 4.6863e+09 seconds)

	Rate name       Delta Moles Total Moles   Reactant        Coefficient

	Albite           -7.076e-08   2.337e-04   NaAlSi3O8                 1

-----------------------------Solution composition------------------------------

	Elements           Molality       Moles

	Al                7.663e-04   7.663e-04
	Na                7.663e-04   7.663e-04
	Si                2.299e-03   2.299e-03

----------------------------Description of solution----------------------------

                                       pH  =   6.756      Charge balance
                                       pe  =   6.531      Adjusted to redox equilibrium
      Specific Conductance (µS/cm, 100°C)  = 110
                          Density (g/cm³)  =   0.95854
                               Volume (L)  =   1.04346
                        Activity of water  =   1.000
                 Ionic strength (mol/kgw)  =   7.697e-04
                       Mass of water (kg)  =   9.999e-01
                 Total alkalinity (eq/kg)  =   3.071e-03
                         Temperature (°C)  = 100.00
                  Electrical balance (eq)  =  -5.690e-06
 Percent error, 100*(Cat-|An|)/(Cat+|An|)  =  -0.37
                               Iterations  =   1
                                  Total H  = 1.110124e+02
                                  Total O  = 5.551235e+01

----------------------------Distribution of species----------------------------

                                               Log       Log       Log    mole V
   Species          Molality    Activity  Molality  Activity     Gamma   cm³/mol

   OH-             3.417e-06   3.293e-06    -5.466    -5.482    -0.016     -5.90
   H+              1.817e-07   1.754e-07    -6.741    -6.756    -0.015      0.00
   H2O             5.551e+01   9.999e-01     1.744    -0.000     0.000     18.80
Al            7.663e-04
   Al(OH)4-        7.584e-04   7.310e-04    -3.120    -3.136    -0.016     (0)  
   Al(OH)3         7.611e-06   7.612e-06    -5.119    -5.118     0.000     (0)  
   Al(OH)2+        3.404e-07   3.282e-07    -6.468    -6.484    -0.016     (0)  
   AlOH+2          1.201e-10   1.038e-10    -9.920    -9.984    -0.063    -31.87
   Al+3            3.655e-14   2.659e-14   -13.437   -13.575    -0.138    -49.51
H(0)          2.075e-30
   H2              1.038e-30   1.038e-30   -29.984   -29.984     0.000     28.57
Na            7.663e-04
   Na+             7.663e-04   7.387e-04    -3.116    -3.132    -0.016      0.29
   NaOH            2.432e-19   2.432e-19   -18.614   -18.614     0.000     (0)  
O(0)          1.691e-13
   O2              8.455e-14   8.457e-14   -13.073   -13.073     0.000     33.90
Si            2.299e-03
   H4SiO4          2.288e-03   2.289e-03    -2.640    -2.640     0.000     48.82
   H3SiO4-         1.075e-05   1.036e-05    -4.969    -4.985    -0.016     26.35
   H2SiO4-2        1.074e-10   9.280e-11    -9.969   -10.032    -0.063     (0)  

------------------------------Saturation indices-------------------------------

  Phase               SI** log IAP   log K(373 K,   1 atm)

  Al(OH)3(a)       -0.20      6.69    6.90  Al(OH)3
  Albite           -0.00    -14.19  -14.19  NaAlSi3O8
  Chalcedony        0.22     -2.64   -2.86  SiO2
  Gibbsite          1.94      6.69    4.75  Al(OH)3
  H2(g)           -26.88    -29.98   -3.10  H2
  H2O(g)           -0.01     -0.00    0.00  H2O
  Kaolinite         5.87      8.10    2.23  Al2Si2O5(OH)4
  O2(g)            -9.96    -13.07   -3.11  O2
  Quartz            0.46     -2.64   -3.10  SiO2
  SiO2(a)          -0.42     -2.64   -2.22  SiO2

**For a gas, SI = log10(fugacity). Fugacity = pressure * phi / 1 atm.
  For ideal gases, phi = 1.

Reaction step 100.

Using solution 1.	
Using kinetics 1.	

Kinetics 1.	

	Time step: 4.73364e+07 seconds  (Incremented time: 4.73364e+09 seconds)

	Rate name       Delta Moles Total Moles   Reactant        Coefficient

	Albite           -6.348e-08   2.337e-04   NaAlSi3O8                 1

-----------------------------Solution composition------------------------------

	Elements           Molality       Moles

	Al                7.664e-04   7.663e-04
	Na                7.664e-04   7.663e-04
	Si                2.299e-03   2.299e-03

----------------------------Description of solution----------------------------

                                       pH  =   6.756      Charge balance
                                       pe  =   6.530      Adjusted to redox equilibrium
      Specific Conductance (µS/cm, 100°C)  = 110
                          Density (g/cm³)  =   0.95854
                               Volume (L)  =   1.04346
                        Activity of water  =   1.000
                 Ionic strength (mol/kgw)  =   7.698e-04
                       Mass of water (kg)  =   9.999e-01
                 Total alkalinity (eq/kg)  =   3.071e-03
                         Temperature (°C)  = 100.00
                  Electrical balance (eq)  =  -5.690e-06
 Percent error, 100*(Cat-|An|)/(Cat+|An|)  =  -0.37
                               Iterations  =   1
                                  Total H  = 1.110124e+02
                                  Total O  = 5.551235e+01

----------------------------Distribution of species----------------------------

                                               Log       Log       Log    mole V
   Species          Molality    Activity  Molality  Activity     Gamma   cm³/mol

   OH-             3.417e-06   3.293e-06    -5.466    -5.482    -0.016     -5.90
   H+              1.817e-07   1.754e-07    -6.741    -6.756    -0.015      0.00
   H2O             5.551e+01   9.999e-01     1.744    -0.000     0.000     18.80
Al            7.664e-04
   Al(OH)4-        7.584e-04   7.311e-04    -3.120    -3.136    -0.016     (0)  
   Al(OH)3         7.612e-06   7.613e-06    -5.119    -5.118     0.000     (0)  
   Al(OH)2+        3.404e-07   3.282e-07    -6.468    -6.484    -0.016     (0)  
   AlOH+2          1.202e-10   1.038e-10    -9.920    -9.984    -0.063    -31.87
   Al+3            3.655e-14   2.660e-14   -13.437   -13.575    -0.138    -49.51
H(0)          2.088e-30
   H2              1.044e-30   1.044e-30   -29.981   -29.981     0.000     28.57
Na            7.664e-04
   Na+             7.664e-04   7.387e-04    -3.116    -3.132    -0.016      0.29
   NaOH            2.432e-19   2.433e-19   -18.614   -18.614     0.000     (0)  
O(0)          1.670e-13
   O2              8.352e-14   8.353e-14   -13.078   -13.078     0.000     33.90
Si            2.299e-03
   H4SiO4          2.288e-03   2.289e-03    -2.640    -2.640     0.000     48.82
   H3SiO4-         1.075e-05   1.036e-05    -4.969    -4.985    -0.016     26.35
   H2SiO4-2        1.074e-10   9.281e-11    -9.969   -10.032    -0.063     (0)  

------------------------------Saturation indices-------------------------------

  Phase               SI** log IAP   log K(373 K,   1 atm)

  Al(OH)3(a)       -0.20      6.69    6.90  Al(OH)3
  Albite           -0.00    -14.19  -14.19  NaAlSi3O8
  Chalcedony        0.22     -2.64   -2.86  SiO2
  Gibbsite          1.94      6.69    4.75  Al(OH)3
  H2(g)           -26.88    -29.98   -3.10  H2
  H2O(g)           -0.01     -0.00    0.00  H2O
  Kaolinite         5.87      8.10    2.23  Al2Si2O5(OH)4
  O2(g)            -9.96    -13.08   -3.11  O2
  Quartz            0.46     -2.64   -3.10  SiO2
  SiO2(a)          -0.42     -2.64   -2.22  SiO2

**For a gas, SI = log10(fugacity). Fugacity = pressure * phi / 1 atm.
  For ideal gases, phi = 1.

------------------
End of simulation.
------------------

------------------------------------
Reading input data for simulation 2.
------------------------------------

-------------------------------
End of Run after 3.548 Seconds.
-------------------------------

