   Input file: k3.phr
  Output file: k3.phr.out
Database file: C:\Users\Eirik\Desktop\phreeqc-3.6.2-15100-x64\database\phreeqc.dat

------------------
Reading data base.
------------------

	SOLUTION_MASTER_SPECIES
	SOLUTION_SPECIES
	PHASES
	EXCHANGE_MASTER_SPECIES
	EXCHANGE_SPECIES
	SURFACE_MASTER_SPECIES
	SURFACE_SPECIES
	RATES
	END
------------------------------------
Reading input data for simulation 1.
------------------------------------

	Database file: C:\Users\Eirik\Desktop\phreeqc-3.6.2-15100-x64\database\phreeqc.dat
	SOLUTION 1
		temp 25
		ph 10
	EQUILIBRIUM_PHASES 1
		CO2(g)	-3.5
		O2(g) -0.7
	RATES 1
	Albite
	 start
		1   REM Sverdrup and Warfvinge, 1995, mol m^-2 s^-1
		2   REM PARM(1) = Specific area of Albite m^2/mol Albite
		3   REM PARM(2) = Adjusts lab rate to field rate
		4   REM temp corr: from A&P, p. 162. E (kJ/mol) / R / 2.303 = H in H*(1/T-1/281)
		5   REM Albite parameters
		10  DATA 11.5, 0.5, 4e-6, 0.4, 500e-6, 0.2, 13.7, 0.14, 0.15, 11.8, 0.3
		20  RESTORE 10
		30  READ pK_H, n_H, lim_Al, x_Al, lim_BC, x_BC, pK_H2O, z_Al, z_BC, pK_OH, o_OH
		40  DATA 3500, 2000, 2500, 2000
		50  RESTORE 40
		60  READ e_H, e_H2O, e_OH, e_CO2
		70  pk_CO2 = 13
		80  n_CO2 = 0.6
		100 REM Generic rate follows
		110 dif_temp = 1/TK - 1/281
		120 BC       = ACT("Na+") + ACT("K+") + ACT("Mg+2") + ACT("Ca+2")
		130 REM rate by H+
		140 pk_H     = pk_H + e_H * dif_temp
		150 rate_H   = 10^-pk_H * ACT("H+")^n_H / ((1 + ACT("Al+3") / lim_Al)^x_Al * (1 + BC / lim_BC)^x_BC)
		160 REM rate by hydrolysis
		170 pk_H2O   = pk_H2O + e_H2O * dif_temp
		180 rate_H2O = 10^-pk_H2O / ((1 + ACT("Al+3") / lim_Al)^z_Al * (1 + BC / lim_BC)^z_BC)
		190 REM rate by OH-
		200 pk_OH    = pk_OH + e_OH * dif_temp
		210 rate_OH  = 10^-pk_OH * ACT("OH-")^o_OH
		220 REM rate by CO2
		230 pk_CO2   = pk_CO2 + e_CO2 * dif_temp
		240 rate_CO2 = 10^-pk_CO2 * (SR("CO2(g)"))^n_CO2
		250 rate     = rate_H + rate_H2O + rate_OH + rate_CO2
		260 area     = PARM(1) * M0 *(M/M0)^0.67
		270 rate     = PARM(2) * area * rate * (1-SR("Albite"))
		280 moles    = rate * TIME
		290 SAVE moles
	 end
	KINETICS 1
	Albite
	        m0 1e-3            # 2% Albite, 0.1 mm cubes
	        m  0.1           # Moles per L pore space
	        parms 6.04  0.1    # m^2/mol Albite, fraction adjusts lab rate to field rate
	        time_steps 5000 year in 100
	INCREMENTAL_REACTIONS true
	USER_PUNCH 				#Write the simulation time in years to the selected output file
		headings time_yr
		10 PUNCH total_time/3.1536e7 
	SELECTED_OUTPUT 
		file ex2.xls
		reset false
		time true
		kinetic_reactants Albite
		saturation_indices Albite
		step true
		ph true
	USER_GRAPH 2
		-chart_title "Albite saturation with CO2, T=25, gasses in equilibrium, pH = 10"
		-axis_titles "Years" "SR" "Albite remaining (mmol)"
		-headings time SR Albite_remaining
		-initial_solutions  false
		-start
		10 graph_x total_time/3.1536e7 				
		20 graph_y SR("Albite")				
		30 graph_sy KIN("Albite")*1e3			
		-end
	END
-------------------------------------------
Beginning of initial solution calculations.
-------------------------------------------

Initial solution 1.	

-----------------------------Solution composition------------------------------

	Elements           Molality       Moles

	Pure water     

----------------------------Description of solution----------------------------

                                       pH  =  10.000    
                                       pe  =   4.000    
      Specific Conductance (µS/cm,  25°C)  = 20
                          Density (g/cm³)  =   0.99705
                               Volume (L)  =   1.00297
                        Activity of water  =   1.000
                 Ionic strength (mol/kgw)  =   5.103e-05
                       Mass of water (kg)  =   1.000e+00
                 Total alkalinity (eq/kg)  =   1.021e-04
                         Temperature (°C)  =  25.00
                  Electrical balance (eq)  =  -1.021e-04
 Percent error, 100*(Cat-|An|)/(Cat+|An|)  = -100.00
                               Iterations  =   3
                                  Total H  = 1.110125e+02
                                  Total O  = 5.550632e+01

----------------------------Distribution of species----------------------------

                                               Log       Log       Log    mole V
   Species          Molality    Activity  Molality  Activity     Gamma   cm³/mol

   OH-             1.021e-04   1.012e-04    -3.991    -3.995    -0.004     -4.13
   H+              1.008e-10   1.000e-10    -9.996   -10.000    -0.004      0.00
   H2O             5.551e+01   1.000e+00     1.744    -0.000     0.000     18.07
H(0)          1.416e-31
   H2              7.079e-32   7.079e-32   -31.150   -31.150     0.000     28.61
O(0)          1.664e-30
   O2              8.318e-31   8.318e-31   -30.080   -30.080     0.000     30.40

------------------------------Saturation indices-------------------------------

  Phase               SI** log IAP   log K(298 K,   1 atm)

  H2(g)           -28.05    -31.15   -3.10  H2
  H2O(g)           -1.50     -0.00    1.50  H2O
  O2(g)           -27.19    -30.08   -2.89  O2

**For a gas, SI = log10(fugacity). Fugacity = pressure * phi / 1 atm.
  For ideal gases, phi = 1.

-----------------------------------------
Beginning of batch-reaction calculations.
-----------------------------------------

Reaction step 1.

Using solution 1.	
Using pure phase assemblage 1.	
Using kinetics 1.	

Kinetics 1.	

	Time step: 1.57788e+09 seconds  (Incremented time: 1.57788e+09 seconds)

	Rate name       Delta Moles Total Moles   Reactant        Coefficient

	Albite           -2.255e-06   1.000e-01   Albite                    1

-------------------------------Phase assemblage--------------------------------

                                                      Moles in assemblage
Phase               SI  log IAP  log K(T, P)   Initial       Final       Delta

CO2(g)           -3.50    -4.97     -1.47    1.000e+01   1.000e+01  -1.126e-04
O2(g)            -0.70    -3.59     -2.89    1.000e+01   1.000e+01  -2.556e-04

-----------------------------Solution composition------------------------------

	Elements           Molality       Moles

	Al                2.255e-06   2.255e-06
	C                 1.126e-04   1.126e-04
	Na                2.255e-06   2.255e-06
	Si                6.766e-06   6.766e-06

----------------------------Description of solution----------------------------

                                       pH  =   7.324      Charge balance
                                       pe  =  13.298      Adjusted to redox equilibrium
      Specific Conductance (µS/cm,  25°C)  = 4
                          Density (g/cm³)  =   0.99705
                               Volume (L)  =   1.00298
                        Activity of water  =   1.000
                 Ionic strength (mol/kgw)  =   5.345e-05
                       Mass of water (kg)  =   1.000e+00
                 Total alkalinity (eq/kg)  =   1.111e-04
                       Total CO2 (mol/kg)  =   1.126e-04
                         Temperature (°C)  =  25.00
                  Electrical balance (eq)  =  -1.021e-04
 Percent error, 100*(Cat-|An|)/(Cat+|An|)  = -95.65
                               Iterations  =  24
                                  Total H  = 1.110125e+02
                                  Total O  = 5.550707e+01

----------------------------Distribution of species----------------------------

                                               Log       Log       Log    mole V
   Species          Molality    Activity  Molality  Activity     Gamma   cm³/mol

   OH-             2.152e-07   2.134e-07    -6.667    -6.671    -0.004     -4.13
   H+              4.783e-08   4.743e-08    -7.320    -7.324    -0.004      0.00
   H2O             5.551e+01   1.000e+00     1.744    -0.000     0.000     18.07
Al            2.255e-06
   Al(OH)4-        2.183e-06   2.165e-06    -5.661    -5.665    -0.004     (0)  
   Al(OH)3         5.448e-08   5.448e-08    -7.264    -7.264     0.000     (0)  
   Al(OH)2+        1.769e-08   1.754e-08    -7.752    -7.756    -0.004     (0)  
   AlOH+2          1.098e-10   1.061e-10    -9.959    -9.974    -0.015    -27.85
   Al+3            5.467e-13   5.069e-13   -12.262   -12.295    -0.033    -42.47
C(-4)         0.000e+00
   CH4             0.000e+00   0.000e+00  -145.553  -145.553     0.000     35.46
C(4)          1.126e-04
   HCO3-           1.018e-04   1.009e-04    -3.992    -3.996    -0.004     24.66
   CO2             1.076e-05   1.076e-05    -4.968    -4.968     0.000     34.43
   CO3-2           1.032e-07   9.976e-08    -6.986    -7.001    -0.015     -5.36
   NaHCO3          1.269e-10   1.269e-10    -9.897    -9.897     0.000      1.80
   NaCO3-          4.189e-12   4.154e-12   -11.378   -11.382    -0.004     -1.06
   (CO2)2          2.125e-12   2.125e-12   -11.673   -11.673     0.000     68.87
H(0)          0.000e+00
   H2              0.000e+00   0.000e+00   -44.394   -44.394     0.000     28.61
Na            2.255e-06
   Na+             2.255e-06   2.236e-06    -5.647    -5.650    -0.004     -1.51
   NaHCO3          1.269e-10   1.269e-10    -9.897    -9.897     0.000      1.80
   NaCO3-          4.189e-12   4.154e-12   -11.378   -11.382    -0.004     -1.06
   NaOH            4.772e-23   4.772e-23   -22.321   -22.321     0.000     (0)  
O(0)          5.112e-04
   O2              2.556e-04   2.556e-04    -3.592    -3.592     0.000     30.40
Si            6.766e-06
   H4SiO4          6.745e-06   6.745e-06    -5.171    -5.171     0.000     52.08
   H3SiO4-         2.115e-08   2.097e-08    -7.675    -7.678    -0.004     27.95
   H2SiO4-2        3.111e-14   3.007e-14   -13.507   -13.522    -0.015     (0)  

------------------------------Saturation indices-------------------------------

  Phase               SI** log IAP   log K(298 K,   1 atm)

  Al(OH)3(a)       -1.12      9.68   10.80  Al(OH)3
  Albite           -8.83    -26.83  -18.00  NaAlSi3O8
  CH4(g)         -142.75   -145.55   -2.80  CH4
  Chalcedony       -1.62     -5.17   -3.55  SiO2
  CO2(g)           -3.50     -4.97   -1.47  CO2	 Pressure   0.0 atm, phi 1.000
  Gibbsite          1.57      9.68    8.11  Al(OH)3
  H2(g)           -41.29    -44.39   -3.10  H2
  H2O(g)           -1.50     -0.00    1.50  H2O
  Kaolinite         1.58      9.01    7.43  Al2Si2O5(OH)4
  O2(g)            -0.70     -3.59   -2.89  O2	 Pressure   0.2 atm, phi 1.000
  Quartz           -1.19     -5.17   -3.98  SiO2
  SiO2(a)          -2.46     -5.17   -2.71  SiO2

**For a gas, SI = log10(fugacity). Fugacity = pressure * phi / 1 atm.
  For ideal gases, phi = 1.

Reaction step 2.

Using solution 1.	
Using pure phase assemblage 1.	
Using kinetics 1.	

Kinetics 1.	

	Time step: 1.57788e+09 seconds  (Incremented time: 3.15576e+09 seconds)

	Rate name       Delta Moles Total Moles   Reactant        Coefficient

	Albite           -2.255e-06   1.000e-01   Albite                    1

-------------------------------Phase assemblage--------------------------------

                                                      Moles in assemblage
Phase               SI  log IAP  log K(T, P)   Initial       Final       Delta

CO2(g)           -3.50    -4.97     -1.47    1.000e+01   1.000e+01  -6.851e-08
O2(g)            -0.70    -3.59     -2.89    1.000e+01   1.000e+01   2.168e-10

-----------------------------Solution composition------------------------------

	Elements           Molality       Moles

	Al                4.510e-06   4.510e-06
	C                 1.127e-04   1.127e-04
	Na                4.510e-06   4.510e-06
	Si                1.353e-05   1.353e-05

----------------------------Description of solution----------------------------

                                       pH  =   7.324      Charge balance
                                       pe  =  13.298      Adjusted to redox equilibrium
      Specific Conductance (µS/cm,  25°C)  = 4
                          Density (g/cm³)  =   0.99705
                               Volume (L)  =   1.00298
                        Activity of water  =   1.000
                 Ionic strength (mol/kgw)  =   5.573e-05
                       Mass of water (kg)  =   1.000e+00
                 Total alkalinity (eq/kg)  =   1.201e-04
                       Total CO2 (mol/kg)  =   1.127e-04
                         Temperature (°C)  =  25.00
                  Electrical balance (eq)  =  -1.021e-04
 Percent error, 100*(Cat-|An|)/(Cat+|An|)  = -91.74
                               Iterations  =   7
                                  Total H  = 1.110125e+02
                                  Total O  = 5.550709e+01

----------------------------Distribution of species----------------------------

                                               Log       Log       Log    mole V
   Species          Molality    Activity  Molality  Activity     Gamma   cm³/mol

   OH-             2.154e-07   2.135e-07    -6.667    -6.671    -0.004     -4.13
   H+              4.782e-08   4.741e-08    -7.320    -7.324    -0.004      0.00
   H2O             5.551e+01   1.000e+00     1.744    -0.000     0.000     18.07
Al            4.510e-06
   Al(OH)4-        4.366e-06   4.328e-06    -5.360    -5.364    -0.004     (0)  
   Al(OH)3         1.089e-07   1.089e-07    -6.963    -6.963     0.000     (0)  
   Al(OH)2+        3.534e-08   3.503e-08    -7.452    -7.456    -0.004     (0)  
   AlOH+2          2.194e-10   2.119e-10    -9.659    -9.674    -0.015    -27.85
   Al+3            1.093e-12   1.011e-12   -11.962   -11.995    -0.034    -42.47
C(-4)         0.000e+00
   CH4             0.000e+00   0.000e+00  -145.553  -145.553     0.000     35.46
C(4)          1.127e-04
   HCO3-           1.018e-04   1.009e-04    -3.992    -3.996    -0.004     24.66
   CO2             1.076e-05   1.076e-05    -4.968    -4.968     0.000     34.43
   CO3-2           1.034e-07   9.986e-08    -6.986    -7.001    -0.015     -5.36
   NaHCO3          2.538e-10   2.538e-10    -9.596    -9.595     0.000      1.80
   NaCO3-          8.386e-12   8.313e-12   -11.076   -11.080    -0.004     -1.06
   (CO2)2          2.125e-12   2.125e-12   -11.673   -11.673     0.000     68.87
H(0)          0.000e+00
   H2              0.000e+00   0.000e+00   -44.394   -44.394     0.000     28.61
Na            4.510e-06
   Na+             4.510e-06   4.471e-06    -5.346    -5.350    -0.004     -1.51
   NaHCO3          2.538e-10   2.538e-10    -9.596    -9.595     0.000      1.80
   NaCO3-          8.386e-12   8.313e-12   -11.076   -11.080    -0.004     -1.06
   NaOH            9.545e-23   9.545e-23   -22.020   -22.020     0.000     (0)  
O(0)          5.112e-04
   O2              2.556e-04   2.556e-04    -3.592    -3.592     0.000     30.40
Si            1.353e-05
   H4SiO4          1.349e-05   1.349e-05    -4.870    -4.870     0.000     52.08
   H3SiO4-         4.232e-08   4.195e-08    -7.373    -7.377    -0.004     27.95
   H2SiO4-2        6.231e-14   6.019e-14   -13.205   -13.220    -0.015     (0)  

------------------------------Saturation indices-------------------------------

  Phase               SI** log IAP   log K(298 K,   1 atm)

  Al(OH)3(a)       -0.82      9.98   10.80  Al(OH)3
  Albite           -7.32    -25.32  -18.00  NaAlSi3O8
  CH4(g)         -142.75   -145.55   -2.80  CH4
  Chalcedony       -1.32     -4.87   -3.55  SiO2
  CO2(g)           -3.50     -4.97   -1.47  CO2	 Pressure   0.0 atm, phi 1.000
  Gibbsite          1.87      9.98    8.11  Al(OH)3
  H2(g)           -41.29    -44.39   -3.10  H2
  H2O(g)           -1.50     -0.00    1.50  H2O
  Kaolinite         2.78     10.21    7.43  Al2Si2O5(OH)4
  O2(g)            -0.70     -3.59   -2.89  O2	 Pressure   0.2 atm, phi 1.000
  Quartz           -0.89     -4.87   -3.98  SiO2
  SiO2(a)          -2.16     -4.87   -2.71  SiO2

**For a gas, SI = log10(fugacity). Fugacity = pressure * phi / 1 atm.
  For ideal gases, phi = 1.

Reaction step 3.

Using solution 1.	
Using pure phase assemblage 1.	
Using kinetics 1.	

Kinetics 1.	

	Time step: 1.57788e+09 seconds  (Incremented time: 4.73364e+09 seconds)

	Rate name       Delta Moles Total Moles   Reactant        Coefficient

	Albite           -2.254e-06   9.999e-02   Albite                    1

-------------------------------Phase assemblage--------------------------------

                                                      Moles in assemblage
Phase               SI  log IAP  log K(T, P)   Initial       Final       Delta

CO2(g)           -3.50    -4.97     -1.47    1.000e+01   1.000e+01  -6.832e-08
O2(g)            -0.70    -3.59     -2.89    1.000e+01   1.000e+01   2.167e-10

-----------------------------Solution composition------------------------------

	Elements           Molality       Moles

	Al                6.764e-06   6.764e-06
	C                 1.128e-04   1.128e-04
	Na                6.764e-06   6.764e-06
	Si                2.029e-05   2.029e-05

----------------------------Description of solution----------------------------

                                       pH  =   7.324      Charge balance
                                       pe  =  13.298      Adjusted to redox equilibrium
      Specific Conductance (µS/cm,  25°C)  = 4
                          Density (g/cm³)  =   0.99705
                               Volume (L)  =   1.00298
                        Activity of water  =   1.000
                 Ionic strength (mol/kgw)  =   5.800e-05
                       Mass of water (kg)  =   1.000e+00
                 Total alkalinity (eq/kg)  =   1.291e-04
                       Total CO2 (mol/kg)  =   1.128e-04
                         Temperature (°C)  =  25.00
                  Electrical balance (eq)  =  -1.021e-04
 Percent error, 100*(Cat-|An|)/(Cat+|An|)  = -88.14
                               Iterations  =   6
                                  Total H  = 1.110125e+02
                                  Total O  = 5.550711e+01

----------------------------Distribution of species----------------------------

                                               Log       Log       Log    mole V
   Species          Molality    Activity  Molality  Activity     Gamma   cm³/mol

   OH-             2.155e-07   2.136e-07    -6.667    -6.670    -0.004     -4.13
   H+              4.780e-08   4.739e-08    -7.321    -7.324    -0.004      0.00
   H2O             5.551e+01   1.000e+00     1.744    -0.000     0.000     18.07
Al            6.764e-06
   Al(OH)4-        6.548e-06   6.490e-06    -5.184    -5.188    -0.004     (0)  
   Al(OH)3         1.632e-07   1.632e-07    -6.787    -6.787     0.000     (0)  
   Al(OH)2+        5.295e-08   5.248e-08    -7.276    -7.280    -0.004     (0)  
   AlOH+2          3.287e-10   3.173e-10    -9.483    -9.499    -0.015    -27.85
   Al+3            1.638e-12   1.514e-12   -11.786   -11.820    -0.034    -42.47
C(-4)         0.000e+00
   CH4             0.000e+00   0.000e+00  -145.553  -145.553     0.000     35.46
C(4)          1.128e-04
   HCO3-           1.019e-04   1.010e-04    -3.992    -3.996    -0.004     24.66
   CO2             1.076e-05   1.076e-05    -4.968    -4.968     0.000     34.43
   CO3-2           1.035e-07   9.995e-08    -6.985    -7.000    -0.015     -5.36
   NaHCO3          3.808e-10   3.808e-10    -9.419    -9.419     0.000      1.80
   NaCO3-          1.259e-11   1.248e-11   -10.900   -10.904    -0.004     -1.06
   (CO2)2          2.125e-12   2.125e-12   -11.673   -11.673     0.000     68.87
H(0)          0.000e+00
   H2              0.000e+00   0.000e+00   -44.394   -44.394     0.000     28.61
Na            6.764e-06
   Na+             6.764e-06   6.705e-06    -5.170    -5.174    -0.004     -1.51
   NaHCO3          3.808e-10   3.808e-10    -9.419    -9.419     0.000      1.80
   NaCO3-          1.259e-11   1.248e-11   -10.900   -10.904    -0.004     -1.06
   NaOH            1.432e-22   1.432e-22   -21.844   -21.844     0.000     (0)  
O(0)          5.112e-04
   O2              2.556e-04   2.556e-04    -3.592    -3.592     0.000     30.40
Si            2.029e-05
   H4SiO4          2.023e-05   2.023e-05    -4.694    -4.694     0.000     52.08
   H3SiO4-         6.351e-08   6.295e-08    -7.197    -7.201    -0.004     27.95
   H2SiO4-2        9.361e-14   9.036e-14   -13.029   -13.044    -0.015     (0)  

------------------------------Saturation indices-------------------------------

  Phase               SI** log IAP   log K(298 K,   1 atm)

  Al(OH)3(a)       -0.65     10.15   10.80  Al(OH)3
  Albite           -6.44    -24.44  -18.00  NaAlSi3O8
  CH4(g)         -142.75   -145.55   -2.80  CH4
  Chalcedony       -1.14     -4.69   -3.55  SiO2
  CO2(g)           -3.50     -4.97   -1.47  CO2	 Pressure   0.0 atm, phi 1.000
  Gibbsite          2.04     10.15    8.11  Al(OH)3
  H2(g)           -41.29    -44.39   -3.10  H2
  H2O(g)           -1.50     -0.00    1.50  H2O
  Kaolinite         3.48     10.92    7.43  Al2Si2O5(OH)4
  O2(g)            -0.70     -3.59   -2.89  O2	 Pressure   0.2 atm, phi 1.000
  Quartz           -0.71     -4.69   -3.98  SiO2
  SiO2(a)          -1.98     -4.69   -2.71  SiO2

**For a gas, SI = log10(fugacity). Fugacity = pressure * phi / 1 atm.
  For ideal gases, phi = 1.

Reaction step 4.

Using solution 1.	
Using pure phase assemblage 1.	
Using kinetics 1.	

Kinetics 1.	

	Time step: 1.57788e+09 seconds  (Incremented time: 6.31152e+09 seconds)

	Rate name       Delta Moles Total Moles   Reactant        Coefficient

	Albite           -2.254e-06   9.999e-02   Albite                    1

-------------------------------Phase assemblage--------------------------------

                                                      Moles in assemblage
Phase               SI  log IAP  log K(T, P)   Initial       Final       Delta

CO2(g)           -3.50    -4.97     -1.47    1.000e+01   1.000e+01  -6.813e-08
O2(g)            -0.70    -3.59     -2.89    1.000e+01   1.000e+01   2.166e-10

-----------------------------Solution composition------------------------------

	Elements           Molality       Moles

	Al                9.018e-06   9.018e-06
	C                 1.128e-04   1.128e-04
	Na                9.018e-06   9.018e-06
	Si                2.705e-05   2.705e-05

----------------------------Description of solution----------------------------

                                       pH  =   7.325      Charge balance
                                       pe  =  13.297      Adjusted to redox equilibrium
      Specific Conductance (µS/cm,  25°C)  = 5
                          Density (g/cm³)  =   0.99705
                               Volume (L)  =   1.00298
                        Activity of water  =   1.000
                 Ionic strength (mol/kgw)  =   6.027e-05
                       Mass of water (kg)  =   1.000e+00
                 Total alkalinity (eq/kg)  =   1.381e-04
                       Total CO2 (mol/kg)  =   1.128e-04
                         Temperature (°C)  =  25.00
                  Electrical balance (eq)  =  -1.021e-04
 Percent error, 100*(Cat-|An|)/(Cat+|An|)  = -84.81
                               Iterations  =   6
                                  Total H  = 1.110125e+02
                                  Total O  = 5.550713e+01

----------------------------Distribution of species----------------------------

                                               Log       Log       Log    mole V
   Species          Molality    Activity  Molality  Activity     Gamma   cm³/mol

   OH-             2.156e-07   2.137e-07    -6.666    -6.670    -0.004     -4.13
   H+              4.779e-08   4.736e-08    -7.321    -7.325    -0.004      0.00
   H2O             5.551e+01   1.000e+00     1.744    -0.000     0.000     18.07
Al            9.018e-06
   Al(OH)4-        8.730e-06   8.651e-06    -5.059    -5.063    -0.004     (0)  
   Al(OH)3         2.174e-07   2.174e-07    -6.663    -6.663     0.000     (0)  
   Al(OH)2+        7.052e-08   6.989e-08    -7.152    -7.156    -0.004     (0)  
   AlOH+2          4.378e-10   4.223e-10    -9.359    -9.374    -0.016    -27.85
   Al+3            2.182e-12   2.014e-12   -11.661   -11.696    -0.035    -42.47
C(-4)         0.000e+00
   CH4             0.000e+00   0.000e+00  -145.553  -145.553     0.000     35.46
C(4)          1.128e-04
   HCO3-           1.020e-04   1.010e-04    -3.992    -3.995    -0.004     24.66
   CO2             1.076e-05   1.076e-05    -4.968    -4.968     0.000     34.43
   CO3-2           1.037e-07   1.001e-07    -6.984    -7.000    -0.016     -5.36
   NaHCO3          5.078e-10   5.078e-10    -9.294    -9.294     0.000      1.80
   NaCO3-          1.680e-11   1.665e-11   -10.775   -10.779    -0.004     -1.06
   (CO2)2          2.125e-12   2.125e-12   -11.673   -11.673     0.000     68.87
H(0)          0.000e+00
   H2              0.000e+00   0.000e+00   -44.394   -44.394     0.000     28.61
Na            9.018e-06
   Na+             9.017e-06   8.937e-06    -5.045    -5.049    -0.004     -1.51
   NaHCO3          5.078e-10   5.078e-10    -9.294    -9.294     0.000      1.80
   NaCO3-          1.680e-11   1.665e-11   -10.775   -10.779    -0.004     -1.06
   NaOH            1.910e-22   1.910e-22   -21.719   -21.719     0.000     (0)  
O(0)          5.112e-04
   O2              2.556e-04   2.556e-04    -3.592    -3.592     0.000     30.40
Si            2.705e-05
   H4SiO4          2.697e-05   2.697e-05    -4.569    -4.569     0.000     52.08
   H3SiO4-         8.472e-08   8.396e-08    -7.072    -7.076    -0.004     27.95
   H2SiO4-2        1.250e-13   1.206e-13   -12.903   -12.919    -0.016     (0)  

------------------------------Saturation indices-------------------------------

  Phase               SI** log IAP   log K(298 K,   1 atm)

  Al(OH)3(a)       -0.52     10.28   10.80  Al(OH)3
  Albite           -5.82    -23.82  -18.00  NaAlSi3O8
  CH4(g)         -142.75   -145.55   -2.80  CH4
  Chalcedony       -1.02     -4.57   -3.55  SiO2
  CO2(g)           -3.50     -4.97   -1.47  CO2	 Pressure   0.0 atm, phi 1.000
  Gibbsite          2.17     10.28    8.11  Al(OH)3
  H2(g)           -41.29    -44.39   -3.10  H2
  H2O(g)           -1.50     -0.00    1.50  H2O
  Kaolinite         3.98     11.42    7.43  Al2Si2O5(OH)4
  O2(g)            -0.70     -3.59   -2.89  O2	 Pressure   0.2 atm, phi 1.000
  Quartz           -0.59     -4.57   -3.98  SiO2
  SiO2(a)          -1.86     -4.57   -2.71  SiO2

**For a gas, SI = log10(fugacity). Fugacity = pressure * phi / 1 atm.
  For ideal gases, phi = 1.

Reaction step 5.

Using solution 1.	
Using pure phase assemblage 1.	
Using kinetics 1.	

Kinetics 1.	

	Time step: 1.57788e+09 seconds  (Incremented time: 7.8894e+09 seconds)

	Rate name       Delta Moles Total Moles   Reactant        Coefficient

	Albite           -2.253e-06   9.999e-02   Albite                    1

-------------------------------Phase assemblage--------------------------------

                                                      Moles in assemblage
Phase               SI  log IAP  log K(T, P)   Initial       Final       Delta

CO2(g)           -3.50    -4.97     -1.47    1.000e+01   1.000e+01  -6.795e-08
O2(g)            -0.70    -3.59     -2.89    1.000e+01   1.000e+01   2.165e-10

-----------------------------Solution composition------------------------------

	Elements           Molality       Moles

	Al                1.127e-05   1.127e-05
	C                 1.129e-04   1.129e-04
	Na                1.127e-05   1.127e-05
	Si                3.381e-05   3.381e-05

----------------------------Description of solution----------------------------

                                       pH  =   7.325      Charge balance
                                       pe  =  13.297      Adjusted to redox equilibrium
      Specific Conductance (µS/cm,  25°C)  = 5
                          Density (g/cm³)  =   0.99705
                               Volume (L)  =   1.00298
                        Activity of water  =   1.000
                 Ionic strength (mol/kgw)  =   6.254e-05
                       Mass of water (kg)  =   1.000e+00
                 Total alkalinity (eq/kg)  =   1.471e-04
                       Total CO2 (mol/kg)  =   1.129e-04
                         Temperature (°C)  =  25.00
                  Electrical balance (eq)  =  -1.021e-04
 Percent error, 100*(Cat-|An|)/(Cat+|An|)  = -81.73
                               Iterations  =   6
                                  Total H  = 1.110125e+02
                                  Total O  = 5.550715e+01

----------------------------Distribution of species----------------------------

                                               Log       Log       Log    mole V
   Species          Molality    Activity  Molality  Activity     Gamma   cm³/mol

   OH-             2.158e-07   2.138e-07    -6.666    -6.670    -0.004     -4.13
   H+              4.777e-08   4.734e-08    -7.321    -7.325    -0.004      0.00
   H2O             5.551e+01   1.000e+00     1.744    -0.000     0.000     18.07
Al            1.127e-05
   Al(OH)4-        1.091e-05   1.081e-05    -4.962    -4.966    -0.004     (0)  
   Al(OH)3         2.715e-07   2.715e-07    -6.566    -6.566     0.000     (0)  
   Al(OH)2+        8.805e-08   8.724e-08    -7.055    -7.059    -0.004     (0)  
   AlOH+2          5.466e-10   5.270e-10    -9.262    -9.278    -0.016    -27.84
   Al+3            2.725e-12   2.511e-12   -11.565   -11.600    -0.035    -42.47
C(-4)         0.000e+00
   CH4             0.000e+00   0.000e+00  -145.553  -145.553     0.000     35.46
C(4)          1.129e-04
   HCO3-           1.020e-04   1.011e-04    -3.991    -3.995    -0.004     24.66
   CO2             1.076e-05   1.076e-05    -4.968    -4.968     0.000     34.43
   CO3-2           1.039e-07   1.002e-07    -6.983    -6.999    -0.016     -5.36
   NaHCO3          6.349e-10   6.349e-10    -9.197    -9.197     0.000      1.80
   NaCO3-          2.102e-11   2.083e-11   -10.677   -10.681    -0.004     -1.06
   (CO2)2          2.125e-12   2.125e-12   -11.673   -11.673     0.000     68.87
H(0)          0.000e+00
   H2              0.000e+00   0.000e+00   -44.394   -44.394     0.000     28.61
Na            1.127e-05
   Na+             1.127e-05   1.117e-05    -4.948    -4.952    -0.004     -1.51
   NaHCO3          6.349e-10   6.349e-10    -9.197    -9.197     0.000      1.80
   NaCO3-          2.102e-11   2.083e-11   -10.677   -10.681    -0.004     -1.06
   NaOH            2.388e-22   2.388e-22   -21.622   -21.622     0.000     (0)  
O(0)          5.112e-04
   O2              2.556e-04   2.556e-04    -3.592    -3.592     0.000     30.40
Si            3.381e-05
   H4SiO4          3.371e-05   3.371e-05    -4.472    -4.472     0.000     52.08
   H3SiO4-         1.060e-07   1.050e-07    -6.975    -6.979    -0.004     27.95
   H2SiO4-2        1.565e-13   1.509e-13   -12.806   -12.821    -0.016     (0)  

------------------------------Saturation indices-------------------------------

  Phase               SI** log IAP   log K(298 K,   1 atm)

  Al(OH)3(a)       -0.43     10.37   10.80  Al(OH)3
  Albite           -5.33    -23.33  -18.00  NaAlSi3O8
  CH4(g)         -142.75   -145.55   -2.80  CH4
  Chalcedony       -0.92     -4.47   -3.55  SiO2
  CO2(g)           -3.50     -4.97   -1.47  CO2	 Pressure   0.0 atm, phi 1.000
  Gibbsite          2.26     10.37    8.11  Al(OH)3
  H2(g)           -41.29    -44.39   -3.10  H2
  H2O(g)           -1.50     -0.00    1.50  H2O
  Kaolinite         4.37     11.80    7.43  Al2Si2O5(OH)4
  O2(g)            -0.70     -3.59   -2.89  O2	 Pressure   0.2 atm, phi 1.000
  Quartz           -0.49     -4.47   -3.98  SiO2
  SiO2(a)          -1.76     -4.47   -2.71  SiO2

**For a gas, SI = log10(fugacity). Fugacity = pressure * phi / 1 atm.
  For ideal gases, phi = 1.

Reaction step 6.

Using solution 1.	
Using pure phase assemblage 1.	
Using kinetics 1.	

Kinetics 1.	

	Time step: 1.57788e+09 seconds  (Incremented time: 9.46728e+09 seconds)

	Rate name       Delta Moles Total Moles   Reactant        Coefficient

	Albite           -2.252e-06   9.999e-02   Albite                    1

-------------------------------Phase assemblage--------------------------------

                                                      Moles in assemblage
Phase               SI  log IAP  log K(T, P)   Initial       Final       Delta

CO2(g)           -3.50    -4.97     -1.47    1.000e+01   1.000e+01  -6.776e-08
O2(g)            -0.70    -3.59     -2.89    1.000e+01   1.000e+01   3.378e-10

-----------------------------Solution composition------------------------------

	Elements           Molality       Moles

	Al                1.352e-05   1.352e-05
	C                 1.130e-04   1.130e-04
	Na                1.352e-05   1.352e-05
	Si                4.057e-05   4.057e-05

----------------------------Description of solution----------------------------

                                       pH  =   7.325      Charge balance
                                       pe  =  13.297      Adjusted to redox equilibrium
      Specific Conductance (µS/cm,  25°C)  = 5
                          Density (g/cm³)  =   0.99705
                               Volume (L)  =   1.00298
                        Activity of water  =   1.000
                 Ionic strength (mol/kgw)  =   6.481e-05
                       Mass of water (kg)  =   1.000e+00
                 Total alkalinity (eq/kg)  =   1.562e-04
                       Total CO2 (mol/kg)  =   1.130e-04
                         Temperature (°C)  =  25.00
                  Electrical balance (eq)  =  -1.021e-04
 Percent error, 100*(Cat-|An|)/(Cat+|An|)  = -78.86
                               Iterations  =   6
                                  Total H  = 1.110125e+02
                                  Total O  = 5.550716e+01

----------------------------Distribution of species----------------------------

                                               Log       Log       Log    mole V
   Species          Molality    Activity  Molality  Activity     Gamma   cm³/mol

   OH-             2.159e-07   2.139e-07    -6.666    -6.670    -0.004     -4.13
   H+              4.775e-08   4.732e-08    -7.321    -7.325    -0.004      0.00
   H2O             5.551e+01   1.000e+00     1.744    -0.000     0.000     18.07
Al            1.352e-05
   Al(OH)4-        1.309e-05   1.297e-05    -4.883    -4.887    -0.004     (0)  
   Al(OH)3         3.256e-07   3.256e-07    -6.487    -6.487     0.000     (0)  
   Al(OH)2+        1.055e-07   1.046e-07    -6.977    -6.981    -0.004     (0)  
   AlOH+2          6.552e-10   6.312e-10    -9.184    -9.200    -0.016    -27.84
   Al+3            3.267e-12   3.007e-12   -11.486   -11.522    -0.036    -42.47
C(-4)         0.000e+00
   CH4             0.000e+00   0.000e+00  -145.553  -145.553     0.000     35.46
C(4)          1.130e-04
   HCO3-           1.021e-04   1.011e-04    -3.991    -3.995    -0.004     24.66
   CO2             1.076e-05   1.076e-05    -4.968    -4.968     0.000     34.43
   CO3-2           1.041e-07   1.003e-07    -6.983    -6.999    -0.016     -5.36
   NaHCO3          7.620e-10   7.620e-10    -9.118    -9.118     0.000      1.80
   NaCO3-          2.524e-11   2.501e-11   -10.598   -10.602    -0.004     -1.06
   (CO2)2          2.125e-12   2.125e-12   -11.673   -11.673     0.000     68.87
H(0)          0.000e+00
   H2              0.000e+00   0.000e+00   -44.394   -44.394     0.000     28.61
Na            1.352e-05
   Na+             1.352e-05   1.340e-05    -4.869    -4.873    -0.004     -1.51
   NaHCO3          7.620e-10   7.620e-10    -9.118    -9.118     0.000      1.80
   NaCO3-          2.524e-11   2.501e-11   -10.598   -10.602    -0.004     -1.06
   NaOH            2.866e-22   2.866e-22   -21.543   -21.543     0.000     (0)  
O(0)          5.112e-04
   O2              2.556e-04   2.556e-04    -3.592    -3.592     0.000     30.40
Si            4.057e-05
   H4SiO4          4.044e-05   4.044e-05    -4.393    -4.393     0.000     52.08
   H3SiO4-         1.272e-07   1.260e-07    -6.895    -6.900    -0.004     27.95
   H2SiO4-2        1.881e-13   1.812e-13   -12.726   -12.742    -0.016     (0)  

------------------------------Saturation indices-------------------------------

  Phase               SI** log IAP   log K(298 K,   1 atm)

  Al(OH)3(a)       -0.35     10.45   10.80  Al(OH)3
  Albite           -4.94    -22.94  -18.00  NaAlSi3O8
  CH4(g)         -142.75   -145.55   -2.80  CH4
  Chalcedony       -0.84     -4.39   -3.55  SiO2
  CO2(g)           -3.50     -4.97   -1.47  CO2	 Pressure   0.0 atm, phi 1.000
  Gibbsite          2.34     10.45    8.11  Al(OH)3
  H2(g)           -41.29    -44.39   -3.10  H2
  H2O(g)           -1.50     -0.00    1.50  H2O
  Kaolinite         4.68     12.12    7.43  Al2Si2O5(OH)4
  O2(g)            -0.70     -3.59   -2.89  O2	 Pressure   0.2 atm, phi 1.000
  Quartz           -0.41     -4.39   -3.98  SiO2
  SiO2(a)          -1.68     -4.39   -2.71  SiO2

**For a gas, SI = log10(fugacity). Fugacity = pressure * phi / 1 atm.
  For ideal gases, phi = 1.

Reaction step 7.

Using solution 1.	
Using pure phase assemblage 1.	
Using kinetics 1.	

Kinetics 1.	

	Time step: 1.57788e+09 seconds  (Incremented time: 1.10452e+10 seconds)

	Rate name       Delta Moles Total Moles   Reactant        Coefficient

	Albite           -2.252e-06   9.998e-02   Albite                    1

-------------------------------Phase assemblage--------------------------------

                                                      Moles in assemblage
Phase               SI  log IAP  log K(T, P)   Initial       Final       Delta

CO2(g)           -3.50    -4.97     -1.47    1.000e+01   1.000e+01  -6.758e-08
O2(g)            -0.70    -3.59     -2.89    1.000e+01   1.000e+01   2.164e-10

-----------------------------Solution composition------------------------------

	Elements           Molality       Moles

	Al                1.577e-05   1.577e-05
	C                 1.130e-04   1.130e-04
	Na                1.577e-05   1.577e-05
	Si                4.732e-05   4.732e-05

----------------------------Description of solution----------------------------

                                       pH  =   7.325      Charge balance
                                       pe  =  13.297      Adjusted to redox equilibrium
      Specific Conductance (µS/cm,  25°C)  = 5
                          Density (g/cm³)  =   0.99705
                               Volume (L)  =   1.00298
                        Activity of water  =   1.000
                 Ionic strength (mol/kgw)  =   6.708e-05
                       Mass of water (kg)  =   1.000e+00
                 Total alkalinity (eq/kg)  =   1.652e-04
                       Total CO2 (mol/kg)  =   1.130e-04
                         Temperature (°C)  =  25.00
                  Electrical balance (eq)  =  -1.021e-04
 Percent error, 100*(Cat-|An|)/(Cat+|An|)  = -76.19
                               Iterations  =   5
                                  Total H  = 1.110125e+02
                                  Total O  = 5.550718e+01

----------------------------Distribution of species----------------------------

                                               Log       Log       Log    mole V
   Species          Molality    Activity  Molality  Activity     Gamma   cm³/mol

   OH-             2.161e-07   2.140e-07    -6.665    -6.670    -0.004     -4.13
   H+              4.774e-08   4.729e-08    -7.321    -7.325    -0.004      0.00
   H2O             5.551e+01   1.000e+00     1.744    -0.000     0.000     18.07
Al            1.577e-05
   Al(OH)4-        1.527e-05   1.513e-05    -4.816    -4.820    -0.004     (0)  
   Al(OH)3         3.796e-07   3.796e-07    -6.421    -6.421     0.000     (0)  
   Al(OH)2+        1.230e-07   1.218e-07    -6.910    -6.914    -0.004     (0)  
   AlOH+2          7.635e-10   7.351e-10    -9.117    -9.134    -0.016    -27.84
   Al+3            3.809e-12   3.500e-12   -11.419   -11.456    -0.037    -42.47
C(-4)         0.000e+00
   CH4             0.000e+00   0.000e+00  -145.553  -145.553     0.000     35.46
C(4)          1.130e-04
   HCO3-           1.022e-04   1.012e-04    -3.991    -3.995    -0.004     24.66
   CO2             1.076e-05   1.076e-05    -4.968    -4.968     0.000     34.43
   CO3-2           1.042e-07   1.004e-07    -6.982    -6.998    -0.016     -5.36
   NaHCO3          8.892e-10   8.892e-10    -9.051    -9.051     0.000      1.80
   NaCO3-          2.948e-11   2.920e-11   -10.531   -10.535    -0.004     -1.06
   (CO2)2          2.125e-12   2.125e-12   -11.673   -11.673     0.000     68.87
H(0)          0.000e+00
   H2              0.000e+00   0.000e+00   -44.394   -44.394     0.000     28.61
Na            1.577e-05
   Na+             1.577e-05   1.562e-05    -4.802    -4.806    -0.004     -1.51
   NaHCO3          8.892e-10   8.892e-10    -9.051    -9.051     0.000      1.80
   NaCO3-          2.948e-11   2.920e-11   -10.531   -10.535    -0.004     -1.06
   NaOH            3.344e-22   3.344e-22   -21.476   -21.476     0.000     (0)  
O(0)          5.112e-04
   O2              2.556e-04   2.556e-04    -3.592    -3.592     0.000     30.40
Si            4.732e-05
   H4SiO4          4.718e-05   4.718e-05    -4.326    -4.326     0.000     52.08
   H3SiO4-         1.485e-07   1.471e-07    -6.828    -6.832    -0.004     27.95
   H2SiO4-2        2.197e-13   2.116e-13   -12.658   -12.675    -0.016     (0)  

------------------------------Saturation indices-------------------------------

  Phase               SI** log IAP   log K(298 K,   1 atm)

  Al(OH)3(a)       -0.28     10.52   10.80  Al(OH)3
  Albite           -4.60    -22.61  -18.00  NaAlSi3O8
  CH4(g)         -142.75   -145.55   -2.80  CH4
  Chalcedony       -0.77     -4.33   -3.55  SiO2
  CO2(g)           -3.50     -4.97   -1.47  CO2	 Pressure   0.0 atm, phi 1.000
  Gibbsite          2.41     10.52    8.11  Al(OH)3
  H2(g)           -41.29    -44.39   -3.10  H2
  H2O(g)           -1.50     -0.00    1.50  H2O
  Kaolinite         4.95     12.39    7.43  Al2Si2O5(OH)4
  O2(g)            -0.70     -3.59   -2.89  O2	 Pressure   0.2 atm, phi 1.000
  Quartz           -0.35     -4.33   -3.98  SiO2
  SiO2(a)          -1.61     -4.33   -2.71  SiO2

**For a gas, SI = log10(fugacity). Fugacity = pressure * phi / 1 atm.
  For ideal gases, phi = 1.

Reaction step 8.

Using solution 1.	
Using pure phase assemblage 1.	
Using kinetics 1.	

Kinetics 1.	

	Time step: 1.57788e+09 seconds  (Incremented time: 1.2623e+10 seconds)

	Rate name       Delta Moles Total Moles   Reactant        Coefficient

	Albite           -2.251e-06   9.998e-02   Albite                    1

-------------------------------Phase assemblage--------------------------------

                                                      Moles in assemblage
Phase               SI  log IAP  log K(T, P)   Initial       Final       Delta

CO2(g)           -3.50    -4.97     -1.47    1.000e+01   1.000e+01  -6.739e-08
O2(g)            -0.70    -3.59     -2.89    1.000e+01   1.000e+01   2.163e-10

-----------------------------Solution composition------------------------------

	Elements           Molality       Moles

	Al                1.803e-05   1.803e-05
	C                 1.131e-04   1.131e-04
	Na                1.803e-05   1.803e-05
	Si                5.408e-05   5.408e-05

----------------------------Description of solution----------------------------

                                       pH  =   7.325      Charge balance
                                       pe  =  13.296      Adjusted to redox equilibrium
      Specific Conductance (µS/cm,  25°C)  = 5
                          Density (g/cm³)  =   0.99705
                               Volume (L)  =   1.00298
                        Activity of water  =   1.000
                 Ionic strength (mol/kgw)  =   6.935e-05
                       Mass of water (kg)  =   1.000e+00
                 Total alkalinity (eq/kg)  =   1.742e-04
                       Total CO2 (mol/kg)  =   1.131e-04
                         Temperature (°C)  =  25.00
                  Electrical balance (eq)  =  -1.021e-04
 Percent error, 100*(Cat-|An|)/(Cat+|An|)  = -73.70
                               Iterations  =   5
                                  Total H  = 1.110125e+02
                                  Total O  = 5.550720e+01

----------------------------Distribution of species----------------------------

                                               Log       Log       Log    mole V
   Species          Molality    Activity  Molality  Activity     Gamma   cm³/mol

   OH-             2.162e-07   2.141e-07    -6.665    -6.669    -0.004     -4.13
   H+              4.772e-08   4.727e-08    -7.321    -7.325    -0.004      0.00
   H2O             5.551e+01   1.000e+00     1.744    -0.000     0.000     18.07
Al            1.803e-05
   Al(OH)4-        1.745e-05   1.728e-05    -4.758    -4.762    -0.004     (0)  
   Al(OH)3         4.334e-07   4.335e-07    -6.363    -6.363     0.000     (0)  
   Al(OH)2+        1.404e-07   1.391e-07    -6.853    -6.857    -0.004     (0)  
   AlOH+2          8.716e-10   8.386e-10    -9.060    -9.076    -0.017    -27.84
   Al+3            4.349e-12   3.991e-12   -11.362   -11.399    -0.037    -42.47
C(-4)         0.000e+00
   CH4             0.000e+00   0.000e+00  -145.553  -145.553     0.000     35.46
C(4)          1.131e-04
   HCO3-           1.022e-04   1.012e-04    -3.990    -3.995    -0.004     24.66
   CO2             1.076e-05   1.076e-05    -4.968    -4.968     0.000     34.43
   CO3-2           1.044e-07   1.005e-07    -6.981    -6.998    -0.017     -5.36
   NaHCO3          1.016e-09   1.016e-09    -8.993    -8.993     0.000      1.80
   NaCO3-          3.372e-11   3.339e-11   -10.472   -10.476    -0.004     -1.06
   (CO2)2          2.125e-12   2.125e-12   -11.673   -11.673     0.000     68.87
H(0)          0.000e+00
   H2              0.000e+00   0.000e+00   -44.394   -44.394     0.000     28.61
Na            1.803e-05
   Na+             1.802e-05   1.785e-05    -4.744    -4.748    -0.004     -1.51
   NaHCO3          1.016e-09   1.016e-09    -8.993    -8.993     0.000      1.80
   NaCO3-          3.372e-11   3.339e-11   -10.472   -10.476    -0.004     -1.06
   NaOH            3.822e-22   3.822e-22   -21.418   -21.418     0.000     (0)  
O(0)          5.112e-04
   O2              2.556e-04   2.556e-04    -3.592    -3.592     0.000     30.40
Si            5.408e-05
   H4SiO4          5.391e-05   5.391e-05    -4.268    -4.268     0.000     52.08
   H3SiO4-         1.698e-07   1.682e-07    -6.770    -6.774    -0.004     27.95
   H2SiO4-2        2.515e-13   2.420e-13   -12.599   -12.616    -0.017     (0)  

------------------------------Saturation indices-------------------------------

  Phase               SI** log IAP   log K(298 K,   1 atm)

  Al(OH)3(a)       -0.22     10.58   10.80  Al(OH)3
  Albite           -4.31    -22.32  -18.00  NaAlSi3O8
  CH4(g)         -142.75   -145.55   -2.80  CH4
  Chalcedony       -0.72     -4.27   -3.55  SiO2
  CO2(g)           -3.50     -4.97   -1.47  CO2	 Pressure   0.0 atm, phi 1.000
  Gibbsite          2.47     10.58    8.11  Al(OH)3
  H2(g)           -41.29    -44.39   -3.10  H2
  H2O(g)           -1.50     -0.00    1.50  H2O
  Kaolinite         5.18     12.62    7.43  Al2Si2O5(OH)4
  O2(g)            -0.70     -3.59   -2.89  O2	 Pressure   0.2 atm, phi 1.000
  Quartz           -0.29     -4.27   -3.98  SiO2
  SiO2(a)          -1.56     -4.27   -2.71  SiO2

**For a gas, SI = log10(fugacity). Fugacity = pressure * phi / 1 atm.
  For ideal gases, phi = 1.

Reaction step 9.

Using solution 1.	
Using pure phase assemblage 1.	
Using kinetics 1.	

Kinetics 1.	

	Time step: 1.57788e+09 seconds  (Incremented time: 1.42009e+10 seconds)

	Rate name       Delta Moles Total Moles   Reactant        Coefficient

	Albite           -2.250e-06   9.998e-02   Albite                    1

-------------------------------Phase assemblage--------------------------------

                                                      Moles in assemblage
Phase               SI  log IAP  log K(T, P)   Initial       Final       Delta

CO2(g)           -3.50    -4.97     -1.47    1.000e+01   1.000e+01  -6.721e-08
O2(g)            -0.70    -3.59     -2.89    1.000e+01   1.000e+01   2.163e-10

-----------------------------Solution composition------------------------------

	Elements           Molality       Moles

	Al                2.028e-05   2.028e-05
	C                 1.132e-04   1.132e-04
	Na                2.028e-05   2.028e-05
	Si                6.083e-05   6.083e-05

----------------------------Description of solution----------------------------

                                       pH  =   7.326      Charge balance
                                       pe  =  13.296      Adjusted to redox equilibrium
      Specific Conductance (µS/cm,  25°C)  = 5
                          Density (g/cm³)  =   0.99705
                               Volume (L)  =   1.00298
                        Activity of water  =   1.000
                 Ionic strength (mol/kgw)  =   7.162e-05
                       Mass of water (kg)  =   1.000e+00
                 Total alkalinity (eq/kg)  =   1.832e-04
                       Total CO2 (mol/kg)  =   1.132e-04
                         Temperature (°C)  =  25.00
                  Electrical balance (eq)  =  -1.021e-04
 Percent error, 100*(Cat-|An|)/(Cat+|An|)  = -71.36
                               Iterations  =   5
                                  Total H  = 1.110125e+02
                                  Total O  = 5.550722e+01

----------------------------Distribution of species----------------------------

                                               Log       Log       Log    mole V
   Species          Molality    Activity  Molality  Activity     Gamma   cm³/mol

   OH-             2.164e-07   2.142e-07    -6.665    -6.669    -0.004     -4.13
   H+              4.771e-08   4.724e-08    -7.321    -7.326    -0.004      0.00
   H2O             5.551e+01   1.000e+00     1.744    -0.000     0.000     18.07
Al            2.028e-05
   Al(OH)4-        1.963e-05   1.944e-05    -4.707    -4.711    -0.004     (0)  
   Al(OH)3         4.872e-07   4.873e-07    -6.312    -6.312     0.000     (0)  
   Al(OH)2+        1.578e-07   1.562e-07    -6.802    -6.806    -0.004     (0)  
   AlOH+2          9.794e-10   9.418e-10    -9.009    -9.026    -0.017    -27.84
   Al+3            4.888e-12   4.479e-12   -11.311   -11.349    -0.038    -42.46
C(-4)         0.000e+00
   CH4             0.000e+00   0.000e+00  -145.553  -145.553     0.000     35.46
C(4)          1.132e-04
   HCO3-           1.023e-04   1.013e-04    -3.990    -3.994    -0.004     24.66
   CO2             1.076e-05   1.076e-05    -4.968    -4.968     0.000     34.43
   CO3-2           1.046e-07   1.006e-07    -6.981    -6.998    -0.017     -5.36
   NaHCO3          1.144e-09   1.144e-09    -8.942    -8.942     0.000      1.80
   NaCO3-          3.796e-11   3.759e-11   -10.421   -10.425    -0.004     -1.06
   (CO2)2          2.125e-12   2.125e-12   -11.673   -11.673     0.000     68.87
H(0)          0.000e+00
   H2              0.000e+00   0.000e+00   -44.394   -44.394     0.000     28.61
Na            2.028e-05
   Na+             2.027e-05   2.008e-05    -4.693    -4.697    -0.004     -1.51
   NaHCO3          1.144e-09   1.144e-09    -8.942    -8.942     0.000      1.80
   NaCO3-          3.796e-11   3.759e-11   -10.421   -10.425    -0.004     -1.06
   NaOH            4.301e-22   4.301e-22   -21.366   -21.366     0.000     (0)  
O(0)          5.112e-04
   O2              2.556e-04   2.556e-04    -3.592    -3.592     0.000     30.40
Si            6.083e-05
   H4SiO4          6.064e-05   6.064e-05    -4.217    -4.217     0.000     52.08
   H3SiO4-         1.911e-07   1.892e-07    -6.719    -6.723    -0.004     27.95
   H2SiO4-2        2.834e-13   2.725e-13   -12.548   -12.565    -0.017     (0)  

------------------------------Saturation indices-------------------------------

  Phase               SI** log IAP   log K(298 K,   1 atm)

  Al(OH)3(a)       -0.17     10.63   10.80  Al(OH)3
  Albite           -4.06    -22.06  -18.00  NaAlSi3O8
  CH4(g)         -142.75   -145.55   -2.80  CH4
  Chalcedony       -0.67     -4.22   -3.55  SiO2
  CO2(g)           -3.50     -4.97   -1.47  CO2	 Pressure   0.0 atm, phi 1.000
  Gibbsite          2.52     10.63    8.11  Al(OH)3
  H2(g)           -41.29    -44.39   -3.10  H2
  H2O(g)           -1.50     -0.00    1.50  H2O
  Kaolinite         5.39     12.82    7.43  Al2Si2O5(OH)4
  O2(g)            -0.70     -3.59   -2.89  O2	 Pressure   0.2 atm, phi 1.000
  Quartz           -0.24     -4.22   -3.98  SiO2
  SiO2(a)          -1.51     -4.22   -2.71  SiO2

**For a gas, SI = log10(fugacity). Fugacity = pressure * phi / 1 atm.
  For ideal gases, phi = 1.

Reaction step 10.

Using solution 1.	
Using pure phase assemblage 1.	
Using kinetics 1.	

Kinetics 1.	

	Time step: 1.57788e+09 seconds  (Incremented time: 1.57788e+10 seconds)

	Rate name       Delta Moles Total Moles   Reactant        Coefficient

	Albite           -2.249e-06   9.998e-02   Albite                    1

-------------------------------Phase assemblage--------------------------------

                                                      Moles in assemblage
Phase               SI  log IAP  log K(T, P)   Initial       Final       Delta

CO2(g)           -3.50    -4.97     -1.47    1.000e+01   1.000e+01  -6.702e-08
O2(g)            -0.70    -3.59     -2.89    1.000e+01   1.000e+01   2.162e-10

-----------------------------Solution composition------------------------------

	Elements           Molality       Moles

	Al                2.253e-05   2.253e-05
	C                 1.132e-04   1.132e-04
	Na                2.253e-05   2.253e-05
	Si                6.758e-05   6.758e-05

----------------------------Description of solution----------------------------

                                       pH  =   7.326      Charge balance
                                       pe  =  13.296      Adjusted to redox equilibrium
      Specific Conductance (µS/cm,  25°C)  = 5
                          Density (g/cm³)  =   0.99705
                               Volume (L)  =   1.00298
                        Activity of water  =   1.000
                 Ionic strength (mol/kgw)  =   7.389e-05
                       Mass of water (kg)  =   1.000e+00
                 Total alkalinity (eq/kg)  =   1.922e-04
                       Total CO2 (mol/kg)  =   1.132e-04
                         Temperature (°C)  =  25.00
                  Electrical balance (eq)  =  -1.021e-04
 Percent error, 100*(Cat-|An|)/(Cat+|An|)  = -69.17
                               Iterations  =   5
                                  Total H  = 1.110125e+02
                                  Total O  = 5.550724e+01

----------------------------Distribution of species----------------------------

                                               Log       Log       Log    mole V
   Species          Molality    Activity  Molality  Activity     Gamma   cm³/mol

   OH-             2.165e-07   2.143e-07    -6.665    -6.669    -0.004     -4.13
   H+              4.769e-08   4.722e-08    -7.322    -7.326    -0.004      0.00
   H2O             5.551e+01   1.000e+00     1.744    -0.000     0.000     18.07
Al            2.253e-05
   Al(OH)4-        2.181e-05   2.159e-05    -4.661    -4.666    -0.004     (0)  
   Al(OH)3         5.410e-07   5.410e-07    -6.267    -6.267     0.000     (0)  
   Al(OH)2+        1.751e-07   1.734e-07    -6.757    -6.761    -0.004     (0)  
   AlOH+2          1.087e-09   1.045e-09    -8.964    -8.981    -0.017    -27.84
   Al+3            5.426e-12   4.966e-12   -11.266   -11.304    -0.038    -42.46
C(-4)         0.000e+00
   CH4             0.000e+00   0.000e+00  -145.553  -145.553     0.000     35.46
C(4)          1.132e-04
   HCO3-           1.024e-04   1.014e-04    -3.990    -3.994    -0.004     24.66
   CO2             1.076e-05   1.076e-05    -4.968    -4.968     0.000     34.43
   CO3-2           1.047e-07   1.007e-07    -6.980    -6.997    -0.017     -5.36
   NaHCO3          1.271e-09   1.271e-09    -8.896    -8.896     0.000      1.80
   NaCO3-          4.222e-11   4.180e-11   -10.375   -10.379    -0.004     -1.06
   (CO2)2          2.125e-12   2.125e-12   -11.673   -11.673     0.000     68.87
H(0)          0.000e+00
   H2              0.000e+00   0.000e+00   -44.394   -44.394     0.000     28.61
Na            2.253e-05
   Na+             2.252e-05   2.230e-05    -4.647    -4.652    -0.004     -1.51
   NaHCO3          1.271e-09   1.271e-09    -8.896    -8.896     0.000      1.80
   NaCO3-          4.222e-11   4.180e-11   -10.375   -10.379    -0.004     -1.06
   NaOH            4.780e-22   4.780e-22   -21.321   -21.321     0.000     (0)  
O(0)          5.112e-04
   O2              2.556e-04   2.556e-04    -3.592    -3.592     0.000     30.40
Si            6.758e-05
   H4SiO4          6.736e-05   6.736e-05    -4.172    -4.172     0.000     52.08
   H3SiO4-         2.125e-07   2.103e-07    -6.673    -6.677    -0.004     27.95
   H2SiO4-2        3.153e-13   3.030e-13   -12.501   -12.519    -0.017     (0)  

------------------------------Saturation indices-------------------------------

  Phase               SI** log IAP   log K(298 K,   1 atm)

  Al(OH)3(a)       -0.13     10.67   10.80  Al(OH)3
  Albite           -3.83    -21.83  -18.00  NaAlSi3O8
  CH4(g)         -142.75   -145.55   -2.80  CH4
  Chalcedony       -0.62     -4.17   -3.55  SiO2
  CO2(g)           -3.50     -4.97   -1.47  CO2	 Pressure   0.0 atm, phi 1.000
  Gibbsite          2.56     10.67    8.11  Al(OH)3
  H2(g)           -41.29    -44.39   -3.10  H2
  H2O(g)           -1.50     -0.00    1.50  H2O
  Kaolinite         5.57     13.00    7.43  Al2Si2O5(OH)4
  O2(g)            -0.70     -3.59   -2.89  O2	 Pressure   0.2 atm, phi 1.000
  Quartz           -0.19     -4.17   -3.98  SiO2
  SiO2(a)          -1.46     -4.17   -2.71  SiO2

**For a gas, SI = log10(fugacity). Fugacity = pressure * phi / 1 atm.
  For ideal gases, phi = 1.

Reaction step 11.

Using solution 1.	
Using pure phase assemblage 1.	
Using kinetics 1.	

Kinetics 1.	

	Time step: 1.57788e+09 seconds  (Incremented time: 1.73567e+10 seconds)

	Rate name       Delta Moles Total Moles   Reactant        Coefficient

	Albite           -2.249e-06   9.998e-02   Albite                    1

-------------------------------Phase assemblage--------------------------------

                                                      Moles in assemblage
Phase               SI  log IAP  log K(T, P)   Initial       Final       Delta

CO2(g)           -3.50    -4.97     -1.47    1.000e+01   1.000e+01  -6.684e-08
O2(g)            -0.70    -3.59     -2.89    1.000e+01   1.000e+01   2.161e-10

-----------------------------Solution composition------------------------------

	Elements           Molality       Moles

	Al                2.477e-05   2.477e-05
	C                 1.133e-04   1.133e-04
	Na                2.477e-05   2.477e-05
	Si                7.432e-05   7.432e-05

----------------------------Description of solution----------------------------

                                       pH  =   7.326      Charge balance
                                       pe  =  13.296      Adjusted to redox equilibrium
      Specific Conductance (µS/cm,  25°C)  = 5
                          Density (g/cm³)  =   0.99705
                               Volume (L)  =   1.00298
                        Activity of water  =   1.000
                 Ionic strength (mol/kgw)  =   7.615e-05
                       Mass of water (kg)  =   1.000e+00
                 Total alkalinity (eq/kg)  =   2.012e-04
                       Total CO2 (mol/kg)  =   1.133e-04
                         Temperature (°C)  =  25.00
                  Electrical balance (eq)  =  -1.021e-04
 Percent error, 100*(Cat-|An|)/(Cat+|An|)  = -67.11
                               Iterations  =   5
                                  Total H  = 1.110125e+02
                                  Total O  = 5.550725e+01

----------------------------Distribution of species----------------------------

                                               Log       Log       Log    mole V
   Species          Molality    Activity  Molality  Activity     Gamma   cm³/mol

   OH-             2.166e-07   2.145e-07    -6.664    -6.669    -0.004     -4.13
   H+              4.767e-08   4.720e-08    -7.322    -7.326    -0.004      0.00
   H2O             5.551e+01   1.000e+00     1.744    -0.000     0.000     18.07
Al            2.477e-05
   Al(OH)4-        2.399e-05   2.374e-05    -4.620    -4.624    -0.004     (0)  
   Al(OH)3         5.946e-07   5.946e-07    -6.226    -6.226     0.000     (0)  
   Al(OH)2+        1.924e-07   1.905e-07    -6.716    -6.720    -0.004     (0)  
   AlOH+2          1.194e-09   1.147e-09    -8.923    -8.940    -0.018    -27.84
   Al+3            5.963e-12   5.450e-12   -11.225   -11.264    -0.039    -42.46
C(-4)         0.000e+00
   CH4             0.000e+00   0.000e+00  -145.553  -145.553     0.000     35.46
C(4)          1.133e-04
   HCO3-           1.024e-04   1.014e-04    -3.990    -3.994    -0.004     24.66
   CO2             1.076e-05   1.076e-05    -4.968    -4.968     0.000     34.43
   CO3-2           1.049e-07   1.008e-07    -6.979    -6.997    -0.018     -5.36
   NaHCO3          1.398e-09   1.398e-09    -8.854    -8.854     0.000      1.80
   NaCO3-          4.648e-11   4.601e-11   -10.333   -10.337    -0.004     -1.06
   (CO2)2          2.125e-12   2.125e-12   -11.673   -11.673     0.000     68.87
H(0)          0.000e+00
   H2              0.000e+00   0.000e+00   -44.394   -44.394     0.000     28.61
Na            2.477e-05
   Na+             2.477e-05   2.452e-05    -4.606    -4.610    -0.004     -1.51
   NaHCO3          1.398e-09   1.398e-09    -8.854    -8.854     0.000      1.80
   NaCO3-          4.648e-11   4.601e-11   -10.333   -10.337    -0.004     -1.06
   NaOH            5.259e-22   5.259e-22   -21.279   -21.279     0.000     (0)  
O(0)          5.112e-04
   O2              2.556e-04   2.556e-04    -3.592    -3.592     0.000     30.40
Si            7.432e-05
   H4SiO4          7.409e-05   7.409e-05    -4.130    -4.130     0.000     52.08
   H3SiO4-         2.338e-07   2.315e-07    -6.631    -6.636    -0.004     27.95
   H2SiO4-2        3.473e-13   3.336e-13   -12.459   -12.477    -0.018     (0)  

------------------------------Saturation indices-------------------------------

  Phase               SI** log IAP   log K(298 K,   1 atm)

  Al(OH)3(a)       -0.09     10.71   10.80  Al(OH)3
  Albite           -3.62    -21.63  -18.00  NaAlSi3O8
  CH4(g)         -142.75   -145.55   -2.80  CH4
  Chalcedony       -0.58     -4.13   -3.55  SiO2
  CO2(g)           -3.50     -4.97   -1.47  CO2	 Pressure   0.0 atm, phi 1.000
  Gibbsite          2.60     10.71    8.11  Al(OH)3
  H2(g)           -41.29    -44.39   -3.10  H2
  H2O(g)           -1.50     -0.00    1.50  H2O
  Kaolinite         5.73     13.17    7.43  Al2Si2O5(OH)4
  O2(g)            -0.70     -3.59   -2.89  O2	 Pressure   0.2 atm, phi 1.000
  Quartz           -0.15     -4.13   -3.98  SiO2
  SiO2(a)          -1.42     -4.13   -2.71  SiO2

**For a gas, SI = log10(fugacity). Fugacity = pressure * phi / 1 atm.
  For ideal gases, phi = 1.

Reaction step 12.

Using solution 1.	
Using pure phase assemblage 1.	
Using kinetics 1.	

Kinetics 1.	

	Time step: 1.57788e+09 seconds  (Incremented time: 1.89346e+10 seconds)

	Rate name       Delta Moles Total Moles   Reactant        Coefficient

	Albite           -2.248e-06   9.997e-02   Albite                    1

-------------------------------Phase assemblage--------------------------------

                                                      Moles in assemblage
Phase               SI  log IAP  log K(T, P)   Initial       Final       Delta

CO2(g)           -3.50    -4.97     -1.47    1.000e+01   1.000e+01  -6.665e-08
O2(g)            -0.70    -3.59     -2.89    1.000e+01   1.000e+01   2.160e-10

-----------------------------Solution composition------------------------------

	Elements           Molality       Moles

	Al                2.702e-05   2.702e-05
	C                 1.134e-04   1.134e-04
	Na                2.702e-05   2.702e-05
	Si                8.107e-05   8.107e-05

----------------------------Description of solution----------------------------

                                       pH  =   7.326      Charge balance
                                       pe  =  13.296      Adjusted to redox equilibrium
      Specific Conductance (µS/cm,  25°C)  = 5
                          Density (g/cm³)  =   0.99705
                               Volume (L)  =   1.00298
                        Activity of water  =   1.000
                 Ionic strength (mol/kgw)  =   7.842e-05
                       Mass of water (kg)  =   1.000e+00
                 Total alkalinity (eq/kg)  =   2.101e-04
                       Total CO2 (mol/kg)  =   1.134e-04
                         Temperature (°C)  =  25.00
                  Electrical balance (eq)  =  -1.021e-04
 Percent error, 100*(Cat-|An|)/(Cat+|An|)  = -65.16
                               Iterations  =   5
                                  Total H  = 1.110125e+02
                                  Total O  = 5.550727e+01

----------------------------Distribution of species----------------------------

                                               Log       Log       Log    mole V
   Species          Molality    Activity  Molality  Activity     Gamma   cm³/mol

   OH-             2.168e-07   2.146e-07    -6.664    -6.668    -0.004     -4.13
   H+              4.765e-08   4.717e-08    -7.322    -7.326    -0.004      0.00
   H2O             5.551e+01   1.000e+00     1.744    -0.000     0.000     18.07
Al            2.702e-05
   Al(OH)4-        2.616e-05   2.590e-05    -4.582    -4.587    -0.004     (0)  
   Al(OH)3         6.481e-07   6.482e-07    -6.188    -6.188     0.000     (0)  
   Al(OH)2+        2.097e-07   2.075e-07    -6.678    -6.683    -0.004     (0)  
   AlOH+2          1.301e-09   1.249e-09    -8.886    -8.903    -0.018    -27.84
   Al+3            6.498e-12   5.932e-12   -11.187   -11.227    -0.040    -42.46
C(-4)         0.000e+00
   CH4             0.000e+00   0.000e+00  -145.553  -145.553     0.000     35.46
C(4)          1.134e-04
   HCO3-           1.025e-04   1.015e-04    -3.989    -3.994    -0.004     24.66
   CO2             1.076e-05   1.076e-05    -4.968    -4.968     0.000     34.43
   CO3-2           1.051e-07   1.009e-07    -6.979    -6.996    -0.018     -5.36
   NaHCO3          1.526e-09   1.526e-09    -8.817    -8.817     0.000      1.80
   NaCO3-          5.075e-11   5.023e-11   -10.295   -10.299    -0.004     -1.06
   (CO2)2          2.125e-12   2.125e-12   -11.673   -11.673     0.000     68.87
H(0)          0.000e+00
   H2              0.000e+00   0.000e+00   -44.394   -44.394     0.000     28.61
Na            2.702e-05
   Na+             2.702e-05   2.674e-05    -4.568    -4.573    -0.004     -1.51
   NaHCO3          1.526e-09   1.526e-09    -8.817    -8.817     0.000      1.80
   NaCO3-          5.075e-11   5.023e-11   -10.295   -10.299    -0.004     -1.06
   NaOH            5.738e-22   5.738e-22   -21.241   -21.241     0.000     (0)  
O(0)          5.112e-04
   O2              2.556e-04   2.556e-04    -3.592    -3.592     0.000     30.40
Si            8.107e-05
   H4SiO4          8.081e-05   8.081e-05    -4.093    -4.093     0.000     52.08
   H3SiO4-         2.552e-07   2.526e-07    -6.593    -6.598    -0.004     27.95
   H2SiO4-2        3.795e-13   3.642e-13   -12.421   -12.439    -0.018     (0)  

------------------------------Saturation indices-------------------------------

  Phase               SI** log IAP   log K(298 K,   1 atm)

  Al(OH)3(a)       -0.05     10.75   10.80  Al(OH)3
  Albite           -3.44    -21.44  -18.00  NaAlSi3O8
  CH4(g)         -142.75   -145.55   -2.80  CH4
  Chalcedony       -0.54     -4.09   -3.55  SiO2
  CO2(g)           -3.50     -4.97   -1.47  CO2	 Pressure   0.0 atm, phi 1.000
  Gibbsite          2.64     10.75    8.11  Al(OH)3
  H2(g)           -41.29    -44.39   -3.10  H2
  H2O(g)           -1.50     -0.00    1.50  H2O
  Kaolinite         5.88     13.32    7.43  Al2Si2O5(OH)4
  O2(g)            -0.70     -3.59   -2.89  O2	 Pressure   0.2 atm, phi 1.000
  Quartz           -0.11     -4.09   -3.98  SiO2
  SiO2(a)          -1.38     -4.09   -2.71  SiO2

**For a gas, SI = log10(fugacity). Fugacity = pressure * phi / 1 atm.
  For ideal gases, phi = 1.

Reaction step 13.

Using solution 1.	
Using pure phase assemblage 1.	
Using kinetics 1.	

Kinetics 1.	

	Time step: 1.57788e+09 seconds  (Incremented time: 2.05124e+10 seconds)

	Rate name       Delta Moles Total Moles   Reactant        Coefficient

	Albite           -2.247e-06   9.997e-02   Albite                    1

-------------------------------Phase assemblage--------------------------------

                                                      Moles in assemblage
Phase               SI  log IAP  log K(T, P)   Initial       Final       Delta

CO2(g)           -3.50    -4.97     -1.47    1.000e+01   1.000e+01  -6.646e-08
O2(g)            -0.70    -3.59     -2.89    1.000e+01   1.000e+01   2.159e-10

-----------------------------Solution composition------------------------------

	Elements           Molality       Moles

	Al                2.927e-05   2.927e-05
	C                 1.134e-04   1.134e-04
	Na                2.927e-05   2.927e-05
	Si                8.781e-05   8.781e-05

----------------------------Description of solution----------------------------

                                       pH  =   7.327      Charge balance
                                       pe  =  13.295      Adjusted to redox equilibrium
      Specific Conductance (µS/cm,  25°C)  = 6
                          Density (g/cm³)  =   0.99705
                               Volume (L)  =   1.00298
                        Activity of water  =   1.000
                 Ionic strength (mol/kgw)  =   8.068e-05
                       Mass of water (kg)  =   1.000e+00
                 Total alkalinity (eq/kg)  =   2.191e-04
                       Total CO2 (mol/kg)  =   1.134e-04
                         Temperature (°C)  =  25.00
                  Electrical balance (eq)  =  -1.021e-04
 Percent error, 100*(Cat-|An|)/(Cat+|An|)  = -63.33
                               Iterations  =   5
                                  Total H  = 1.110125e+02
                                  Total O  = 5.550729e+01

----------------------------Distribution of species----------------------------

                                               Log       Log       Log    mole V
   Species          Molality    Activity  Molality  Activity     Gamma   cm³/mol

   OH-             2.169e-07   2.147e-07    -6.664    -6.668    -0.005     -4.13
   H+              4.764e-08   4.715e-08    -7.322    -7.327    -0.004      0.00
   H2O             5.551e+01   1.000e+00     1.744    -0.000     0.000     18.07
Al            2.927e-05
   Al(OH)4-        2.834e-05   2.805e-05    -4.548    -4.552    -0.005     (0)  
   Al(OH)3         7.016e-07   7.016e-07    -6.154    -6.154     0.000     (0)  
   Al(OH)2+        2.269e-07   2.245e-07    -6.644    -6.649    -0.005     (0)  
   AlOH+2          1.408e-09   1.351e-09    -8.851    -8.869    -0.018    -27.84
   Al+3            7.033e-12   6.411e-12   -11.153   -11.193    -0.040    -42.46
C(-4)         0.000e+00
   CH4             0.000e+00   0.000e+00  -145.553  -145.553     0.000     35.46
C(4)          1.134e-04
   HCO3-           1.026e-04   1.015e-04    -3.989    -3.994    -0.005     24.66
   CO2             1.076e-05   1.076e-05    -4.968    -4.968     0.000     34.43
   CO3-2           1.052e-07   1.010e-07    -6.978    -6.996    -0.018     -5.36
   NaHCO3          1.653e-09   1.653e-09    -8.782    -8.782     0.000      1.80
   NaCO3-          5.502e-11   5.445e-11   -10.259   -10.264    -0.005     -1.06
   (CO2)2          2.125e-12   2.125e-12   -11.673   -11.673     0.000     68.87
H(0)          0.000e+00
   H2              0.000e+00   0.000e+00   -44.394   -44.394     0.000     28.61
Na            2.927e-05
   Na+             2.927e-05   2.896e-05    -4.534    -4.538    -0.005     -1.51
   NaHCO3          1.653e-09   1.653e-09    -8.782    -8.782     0.000      1.80
   NaCO3-          5.502e-11   5.445e-11   -10.259   -10.264    -0.005     -1.06
   NaOH            6.217e-22   6.218e-22   -21.206   -21.206     0.000     (0)  
O(0)          5.112e-04
   O2              2.556e-04   2.556e-04    -3.592    -3.592     0.000     30.40
Si            8.781e-05
   H4SiO4          8.753e-05   8.753e-05    -4.058    -4.058     0.000     52.08
   H3SiO4-         2.766e-07   2.737e-07    -6.558    -6.563    -0.005     27.95
   H2SiO4-2        4.117e-13   3.949e-13   -12.385   -12.404    -0.018     (0)  

------------------------------Saturation indices-------------------------------

  Phase               SI** log IAP   log K(298 K,   1 atm)

  Al(OH)3(a)       -0.01     10.79   10.80  Al(OH)3
  Albite           -3.26    -21.26  -18.00  NaAlSi3O8
  CH4(g)         -142.75   -145.55   -2.80  CH4
  Chalcedony       -0.51     -4.06   -3.55  SiO2
  CO2(g)           -3.50     -4.97   -1.47  CO2	 Pressure   0.0 atm, phi 1.000
  Gibbsite          2.68     10.79    8.11  Al(OH)3
  H2(g)           -41.29    -44.39   -3.10  H2
  H2O(g)           -1.50     -0.00    1.50  H2O
  Kaolinite         6.02     13.46    7.43  Al2Si2O5(OH)4
  O2(g)            -0.70     -3.59   -2.89  O2	 Pressure   0.2 atm, phi 1.000
  Quartz           -0.08     -4.06   -3.98  SiO2
  SiO2(a)          -1.35     -4.06   -2.71  SiO2

**For a gas, SI = log10(fugacity). Fugacity = pressure * phi / 1 atm.
  For ideal gases, phi = 1.

Reaction step 14.

Using solution 1.	
Using pure phase assemblage 1.	
Using kinetics 1.	

Kinetics 1.	

	Time step: 1.57788e+09 seconds  (Incremented time: 2.20903e+10 seconds)

	Rate name       Delta Moles Total Moles   Reactant        Coefficient

	Albite           -2.246e-06   9.997e-02   Albite                    1

-------------------------------Phase assemblage--------------------------------

                                                      Moles in assemblage
Phase               SI  log IAP  log K(T, P)   Initial       Final       Delta

CO2(g)           -3.50    -4.97     -1.47    1.000e+01   1.000e+01  -6.627e-08
O2(g)            -0.70    -3.59     -2.89    1.000e+01   1.000e+01   2.158e-10

-----------------------------Solution composition------------------------------

	Elements           Molality       Moles

	Al                3.151e-05   3.151e-05
	C                 1.135e-04   1.135e-04
	Na                3.151e-05   3.151e-05
	Si                9.454e-05   9.454e-05

----------------------------Description of solution----------------------------

                                       pH  =   7.327      Charge balance
                                       pe  =  13.295      Adjusted to redox equilibrium
      Specific Conductance (µS/cm,  25°C)  = 6
                          Density (g/cm³)  =   0.99706
                               Volume (L)  =   1.00298
                        Activity of water  =   1.000
                 Ionic strength (mol/kgw)  =   8.295e-05
                       Mass of water (kg)  =   1.000e+00
                 Total alkalinity (eq/kg)  =   2.281e-04
                       Total CO2 (mol/kg)  =   1.135e-04
                         Temperature (°C)  =  25.00
                  Electrical balance (eq)  =  -1.021e-04
 Percent error, 100*(Cat-|An|)/(Cat+|An|)  = -61.60
                               Iterations  =   5
                                  Total H  = 1.110125e+02
                                  Total O  = 5.550731e+01

----------------------------Distribution of species----------------------------

                                               Log       Log       Log    mole V
   Species          Molality    Activity  Molality  Activity     Gamma   cm³/mol

   OH-             2.171e-07   2.148e-07    -6.663    -6.668    -0.005     -4.13
   H+              4.762e-08   4.713e-08    -7.322    -7.327    -0.005      0.00
   H2O             5.551e+01   1.000e+00     1.744    -0.000     0.000     18.07
Al            3.151e-05
   Al(OH)4-        3.051e-05   3.019e-05    -4.515    -4.520    -0.005     (0)  
   Al(OH)3         7.550e-07   7.550e-07    -6.122    -6.122     0.000     (0)  
   Al(OH)2+        2.440e-07   2.415e-07    -6.613    -6.617    -0.005     (0)  
   AlOH+2          1.514e-09   1.452e-09    -8.820    -8.838    -0.018    -27.84
   Al+3            7.566e-12   6.889e-12   -11.121   -11.162    -0.041    -42.46
C(-4)         0.000e+00
   CH4             0.000e+00   0.000e+00  -145.553  -145.553     0.000     35.46
C(4)          1.135e-04
   HCO3-           1.026e-04   1.016e-04    -3.989    -3.993    -0.005     24.66
   CO2             1.076e-05   1.076e-05    -4.968    -4.968     0.000     34.43
   CO3-2           1.054e-07   1.011e-07    -6.977    -6.995    -0.018     -5.36
   NaHCO3          1.781e-09   1.781e-09    -8.749    -8.749     0.000      1.80
   NaCO3-          5.930e-11   5.868e-11   -10.227   -10.232    -0.005     -1.06
   (CO2)2          2.125e-12   2.125e-12   -11.673   -11.673     0.000     68.87
H(0)          0.000e+00
   H2              0.000e+00   0.000e+00   -44.394   -44.394     0.000     28.61
Na            3.151e-05
   Na+             3.151e-05   3.118e-05    -4.502    -4.506    -0.005     -1.51
   NaHCO3          1.781e-09   1.781e-09    -8.749    -8.749     0.000      1.80
   NaCO3-          5.930e-11   5.868e-11   -10.227   -10.232    -0.005     -1.06
   NaOH            6.697e-22   6.697e-22   -21.174   -21.174     0.000     (0)  
O(0)          5.112e-04
   O2              2.556e-04   2.556e-04    -3.592    -3.592     0.000     30.40
Si            9.454e-05
   H4SiO4          9.425e-05   9.425e-05    -4.026    -4.026     0.000     52.08
   H3SiO4-         2.980e-07   2.949e-07    -6.526    -6.530    -0.005     27.95
   H2SiO4-2        4.439e-13   4.256e-13   -12.353   -12.371    -0.018     (0)  

------------------------------Saturation indices-------------------------------

  Phase               SI** log IAP   log K(298 K,   1 atm)

  Al(OH)3(a)        0.02     10.82   10.80  Al(OH)3
  Albite           -3.10    -21.10  -18.00  NaAlSi3O8
  CH4(g)         -142.75   -145.55   -2.80  CH4
  Chalcedony       -0.47     -4.03   -3.55  SiO2
  CO2(g)           -3.50     -4.97   -1.47  CO2	 Pressure   0.0 atm, phi 1.000
  Gibbsite          2.71     10.82    8.11  Al(OH)3
  H2(g)           -41.29    -44.39   -3.10  H2
  H2O(g)           -1.50     -0.00    1.50  H2O
  Kaolinite         6.15     13.59    7.43  Al2Si2O5(OH)4
  O2(g)            -0.70     -3.59   -2.89  O2	 Pressure   0.2 atm, phi 1.000
  Quartz           -0.05     -4.03   -3.98  SiO2
  SiO2(a)          -1.31     -4.03   -2.71  SiO2

**For a gas, SI = log10(fugacity). Fugacity = pressure * phi / 1 atm.
  For ideal gases, phi = 1.

Reaction step 15.

Using solution 1.	
Using pure phase assemblage 1.	
Using kinetics 1.	

Kinetics 1.	

	Time step: 1.57788e+09 seconds  (Incremented time: 2.36682e+10 seconds)

	Rate name       Delta Moles Total Moles   Reactant        Coefficient

	Albite           -2.245e-06   9.997e-02   Albite                    1

-------------------------------Phase assemblage--------------------------------

                                                      Moles in assemblage
Phase               SI  log IAP  log K(T, P)   Initial       Final       Delta

CO2(g)           -3.50    -4.97     -1.47    1.000e+01   1.000e+01  -6.608e-08
O2(g)            -0.70    -3.59     -2.89    1.000e+01   1.000e+01   2.157e-10

-----------------------------Solution composition------------------------------

[...]
                        Activity of water  =   1.000
                 Ionic strength (mol/kgw)  =   1.831e-04
                       Mass of water (kg)  =   1.000e+00
                 Total alkalinity (eq/kg)  =   6.259e-04
                       Total CO2 (mol/kg)  =   1.163e-04
                         Temperature (°C)  =  25.00
                  Electrical balance (eq)  =  -1.021e-04
 Percent error, 100*(Cat-|An|)/(Cat+|An|)  = -27.88
                               Iterations  =   4
                                  Total H  = 1.110125e+02
                                  Total O  = 5.550811e+01

----------------------------Distribution of species----------------------------

                                               Log       Log       Log    mole V
   Species          Molality    Activity  Molality  Activity     Gamma   cm³/mol

   OH-             2.229e-07   2.195e-07    -6.652    -6.659    -0.007     -4.13
   H+              4.683e-08   4.612e-08    -7.330    -7.336    -0.007      0.00
   H2O             5.551e+01   1.000e+00     1.744    -0.000     0.000     18.07
Al            1.310e-04
   Al(OH)4-        1.269e-04   1.250e-04    -3.896    -3.903    -0.007     (0)  
   Al(OH)3         3.057e-06   3.058e-06    -5.515    -5.515     0.000     (0)  
   Al(OH)2+        9.720e-07   9.570e-07    -6.012    -6.019    -0.007     (0)  
   AlOH+2          5.992e-09   5.631e-09    -8.222    -8.249    -0.027    -27.82
   Al+3            3.000e-11   2.614e-11   -10.523   -10.583    -0.060    -42.42
C(-4)         0.000e+00
   CH4             0.000e+00   0.000e+00  -145.553  -145.553     0.000     35.46
C(4)          1.163e-04
   HCO3-           1.054e-04   1.038e-04    -3.977    -3.984    -0.007     24.66
   CO2             1.076e-05   1.076e-05    -4.968    -4.968     0.000     34.43
   CO3-2           1.123e-07   1.055e-07    -6.950    -6.977    -0.027     -5.34
   NaHCO3          7.524e-09   7.524e-09    -8.124    -8.124     0.000      1.80
   NaCO3-          2.573e-10   2.534e-10    -9.589    -9.596    -0.007     -1.05
   (CO2)2          2.125e-12   2.125e-12   -11.673   -11.673     0.000     68.87
H(0)          0.000e+00
   H2              0.000e+00   0.000e+00   -44.394   -44.394     0.000     28.61
Na            1.310e-04
   Na+             1.309e-04   1.289e-04    -3.883    -3.890    -0.007     -1.50
   NaHCO3          7.524e-09   7.524e-09    -8.124    -8.124     0.000      1.80
   NaCO3-          2.573e-10   2.534e-10    -9.589    -9.596    -0.007     -1.05
   NaOH            2.829e-21   2.830e-21   -20.548   -20.548     0.000     (0)  
O(0)          5.112e-04
   O2              2.556e-04   2.556e-04    -3.592    -3.592     0.000     30.40
Si            3.929e-04
   H4SiO4          3.916e-04   3.916e-04    -3.407    -3.407     0.000     52.08
   H3SiO4-         1.272e-06   1.252e-06    -5.896    -5.902    -0.007     27.96
   H2SiO4-2        1.965e-12   1.847e-12   -11.707   -11.734    -0.027     (0)  

------------------------------Saturation indices-------------------------------

  Phase               SI** log IAP   log K(298 K,   1 atm)

  Al(OH)3(a)        0.63     11.43   10.80  Al(OH)3
  Albite           -0.01    -18.01  -18.00  NaAlSi3O8
  CH4(g)         -142.75   -145.55   -2.80  CH4
  Chalcedony        0.14     -3.41   -3.55  SiO2
  CO2(g)           -3.50     -4.97   -1.47  CO2	 Pressure   0.0 atm, phi 1.000
  Gibbsite          3.32     11.43    8.11  Al(OH)3
  H2(g)           -41.29    -44.39   -3.10  H2
  H2O(g)           -1.50     -0.00    1.50  H2O
  Kaolinite         8.60     16.04    7.43  Al2Si2O5(OH)4
  O2(g)            -0.70     -3.59   -2.89  O2	 Pressure   0.2 atm, phi 1.000
  Quartz            0.57     -3.41   -3.98  SiO2
  SiO2(a)          -0.70     -3.41   -2.71  SiO2

**For a gas, SI = log10(fugacity). Fugacity = pressure * phi / 1 atm.
  For ideal gases, phi = 1.

Reaction step 98.

Using solution 1.	
Using pure phase assemblage 1.	
Using kinetics 1.	

Kinetics 1.	

	Time step: 1.57788e+09 seconds  (Incremented time: 1.54632e+11 seconds)

	Rate name       Delta Moles Total Moles   Reactant        Coefficient

	Albite           -6.193e-08   9.987e-02   Albite                    1

-------------------------------Phase assemblage--------------------------------

                                                      Moles in assemblage
Phase               SI  log IAP  log K(T, P)   Initial       Final       Delta

CO2(g)           -3.50    -4.97     -1.47    1.000e+01   1.000e+01  -1.648e-09
O2(g)            -0.70    -3.59     -2.89    1.000e+01   1.000e+01   1.356e-11

-----------------------------Solution composition------------------------------

	Elements           Molality       Moles

	Al                1.310e-04   1.310e-04
	C                 1.163e-04   1.163e-04
	Na                1.310e-04   1.310e-04
	Si                3.931e-04   3.930e-04

----------------------------Description of solution----------------------------

                                       pH  =   7.336      Charge balance
                                       pe  =  13.286      Adjusted to redox equilibrium
      Specific Conductance (µS/cm,  25°C)  = 11
                          Density (g/cm³)  =   0.99708
                               Volume (L)  =   1.00298
                        Activity of water  =   1.000
                 Ionic strength (mol/kgw)  =   1.832e-04
                       Mass of water (kg)  =   1.000e+00
                 Total alkalinity (eq/kg)  =   6.261e-04
                       Total CO2 (mol/kg)  =   1.163e-04
                         Temperature (°C)  =  25.00
                  Electrical balance (eq)  =  -1.021e-04
 Percent error, 100*(Cat-|An|)/(Cat+|An|)  = -27.88
                               Iterations  =   5
                                  Total H  = 1.110125e+02
                                  Total O  = 5.550811e+01

----------------------------Distribution of species----------------------------

                                               Log       Log       Log    mole V
   Species          Molality    Activity  Molality  Activity     Gamma   cm³/mol

   OH-             2.229e-07   2.195e-07    -6.652    -6.659    -0.007     -4.13
   H+              4.683e-08   4.612e-08    -7.330    -7.336    -0.007      0.00
   H2O             5.551e+01   1.000e+00     1.744    -0.000     0.000     18.07
Al            1.310e-04
   Al(OH)4-        1.270e-04   1.250e-04    -3.896    -3.903    -0.007     (0)  
   Al(OH)3         3.059e-06   3.059e-06    -5.514    -5.514     0.000     (0)  
   Al(OH)2+        9.724e-07   9.574e-07    -6.012    -6.019    -0.007     (0)  
   AlOH+2          5.994e-09   5.633e-09    -8.222    -8.249    -0.027    -27.82
   Al+3            3.001e-11   2.615e-11   -10.523   -10.582    -0.060    -42.42
C(-4)         0.000e+00
   CH4             0.000e+00   0.000e+00  -145.553  -145.553     0.000     35.46
C(4)          1.163e-04
   HCO3-           1.054e-04   1.038e-04    -3.977    -3.984    -0.007     24.66
   CO2             1.076e-05   1.076e-05    -4.968    -4.968     0.000     34.43
   CO3-2           1.123e-07   1.055e-07    -6.950    -6.977    -0.027     -5.34
   NaHCO3          7.527e-09   7.528e-09    -8.123    -8.123     0.000      1.80
   NaCO3-          2.575e-10   2.535e-10    -9.589    -9.596    -0.007     -1.05
   (CO2)2          2.125e-12   2.125e-12   -11.673   -11.673     0.000     68.87
H(0)          0.000e+00
   H2              0.000e+00   0.000e+00   -44.394   -44.394     0.000     28.61
Na            1.310e-04
   Na+             1.310e-04   1.290e-04    -3.883    -3.889    -0.007     -1.50
   NaHCO3          7.527e-09   7.528e-09    -8.123    -8.123     0.000      1.80
   NaCO3-          2.575e-10   2.535e-10    -9.589    -9.596    -0.007     -1.05
   NaOH            2.831e-21   2.831e-21   -20.548   -20.548     0.000     (0)  
O(0)          5.112e-04
   O2              2.556e-04   2.556e-04    -3.592    -3.592     0.000     30.40
Si            3.931e-04
   H4SiO4          3.918e-04   3.918e-04    -3.407    -3.407     0.000     52.08
   H3SiO4-         1.272e-06   1.253e-06    -5.895    -5.902    -0.007     27.96
   H2SiO4-2        1.966e-12   1.848e-12   -11.706   -11.733    -0.027     (0)  

------------------------------Saturation indices-------------------------------

  Phase               SI** log IAP   log K(298 K,   1 atm)

  Al(OH)3(a)        0.63     11.43   10.80  Al(OH)3
  Albite           -0.01    -18.01  -18.00  NaAlSi3O8
  CH4(g)         -142.75   -145.55   -2.80  CH4
  Chalcedony        0.14     -3.41   -3.55  SiO2
  CO2(g)           -3.50     -4.97   -1.47  CO2	 Pressure   0.0 atm, phi 1.000
  Gibbsite          3.32     11.43    8.11  Al(OH)3
  H2(g)           -41.29    -44.39   -3.10  H2
  H2O(g)           -1.50     -0.00    1.50  H2O
  Kaolinite         8.60     16.04    7.43  Al2Si2O5(OH)4
  O2(g)            -0.70     -3.59   -2.89  O2	 Pressure   0.2 atm, phi 1.000
  Quartz            0.57     -3.41   -3.98  SiO2
  SiO2(a)          -0.70     -3.41   -2.71  SiO2

**For a gas, SI = log10(fugacity). Fugacity = pressure * phi / 1 atm.
  For ideal gases, phi = 1.

Reaction step 99.

Using solution 1.	
Using pure phase assemblage 1.	
Using kinetics 1.	

Kinetics 1.	

	Time step: 1.57788e+09 seconds  (Incremented time: 1.5621e+11 seconds)

	Rate name       Delta Moles Total Moles   Reactant        Coefficient

	Albite           -5.683e-08   9.987e-02   Albite                    1

-------------------------------Phase assemblage--------------------------------

                                                      Moles in assemblage
Phase               SI  log IAP  log K(T, P)   Initial       Final       Delta

CO2(g)           -3.50    -4.97     -1.47    1.000e+01   1.000e+01  -1.512e-09
O2(g)            -0.70    -3.59     -2.89    1.000e+01   1.000e+01   5.462e-12

-----------------------------Solution composition------------------------------

	Elements           Molality       Moles

	Al                1.311e-04   1.311e-04
	C                 1.163e-04   1.163e-04
	Na                1.311e-04   1.311e-04
	Si                3.932e-04   3.932e-04

----------------------------Description of solution----------------------------

                                       pH  =   7.336      Charge balance
                                       pe  =  13.286      Adjusted to redox equilibrium
      Specific Conductance (µS/cm,  25°C)  = 11
                          Density (g/cm³)  =   0.99708
                               Volume (L)  =   1.00298
                        Activity of water  =   1.000
                 Ionic strength (mol/kgw)  =   1.832e-04
                       Mass of water (kg)  =   1.000e+00
                 Total alkalinity (eq/kg)  =   6.264e-04
                       Total CO2 (mol/kg)  =   1.163e-04
                         Temperature (°C)  =  25.00
                  Electrical balance (eq)  =  -1.021e-04
 Percent error, 100*(Cat-|An|)/(Cat+|An|)  = -27.87
                               Iterations  =   4
                                  Total H  = 1.110125e+02
                                  Total O  = 5.550811e+01

----------------------------Distribution of species----------------------------

                                               Log       Log       Log    mole V
   Species          Molality    Activity  Molality  Activity     Gamma   cm³/mol

   OH-             2.229e-07   2.195e-07    -6.652    -6.659    -0.007     -4.13
   H+              4.683e-08   4.611e-08    -7.330    -7.336    -0.007      0.00
   H2O             5.551e+01   1.000e+00     1.744    -0.000     0.000     18.07
Al            1.311e-04
   Al(OH)4-        1.270e-04   1.251e-04    -3.896    -3.903    -0.007     (0)  
   Al(OH)3         3.060e-06   3.060e-06    -5.514    -5.514     0.000     (0)  
   Al(OH)2+        9.728e-07   9.578e-07    -6.012    -6.019    -0.007     (0)  
   AlOH+2          5.997e-09   5.636e-09    -8.222    -8.249    -0.027    -27.82
   Al+3            3.002e-11   2.616e-11   -10.523   -10.582    -0.060    -42.42
C(-4)         0.000e+00
   CH4             0.000e+00   0.000e+00  -145.553  -145.553     0.000     35.46
C(4)          1.163e-04
   HCO3-           1.054e-04   1.038e-04    -3.977    -3.984    -0.007     24.66
   CO2             1.076e-05   1.076e-05    -4.968    -4.968     0.000     34.43
   CO3-2           1.123e-07   1.055e-07    -6.950    -6.977    -0.027     -5.34
   NaHCO3          7.531e-09   7.531e-09    -8.123    -8.123     0.000      1.80
   NaCO3-          2.576e-10   2.536e-10    -9.589    -9.596    -0.007     -1.05
   (CO2)2          2.125e-12   2.125e-12   -11.673   -11.673     0.000     68.87
H(0)          0.000e+00
   H2              0.000e+00   0.000e+00   -44.394   -44.394     0.000     28.61
Na            1.311e-04
   Na+             1.311e-04   1.290e-04    -3.883    -3.889    -0.007     -1.50
   NaHCO3          7.531e-09   7.531e-09    -8.123    -8.123     0.000      1.80
   NaCO3-          2.576e-10   2.536e-10    -9.589    -9.596    -0.007     -1.05
   NaOH            2.832e-21   2.832e-21   -20.548   -20.548     0.000     (0)  
O(0)          5.112e-04
   O2              2.556e-04   2.556e-04    -3.592    -3.592     0.000     30.40
Si            3.932e-04
   H4SiO4          3.920e-04   3.920e-04    -3.407    -3.407     0.000     52.08
   H3SiO4-         1.273e-06   1.253e-06    -5.895    -5.902    -0.007     27.96
   H2SiO4-2        1.967e-12   1.849e-12   -11.706   -11.733    -0.027     (0)  

------------------------------Saturation indices-------------------------------

  Phase               SI** log IAP   log K(298 K,   1 atm)

  Al(OH)3(a)        0.63     11.43   10.80  Al(OH)3
  Albite           -0.01    -18.01  -18.00  NaAlSi3O8
  CH4(g)         -142.75   -145.55   -2.80  CH4
  Chalcedony        0.14     -3.41   -3.55  SiO2
  CO2(g)           -3.50     -4.97   -1.47  CO2	 Pressure   0.0 atm, phi 1.000
  Gibbsite          3.32     11.43    8.11  Al(OH)3
  H2(g)           -41.29    -44.39   -3.10  H2
  H2O(g)           -1.50     -0.00    1.50  H2O
  Kaolinite         8.60     16.04    7.43  Al2Si2O5(OH)4
  O2(g)            -0.70     -3.59   -2.89  O2	 Pressure   0.2 atm, phi 1.000
  Quartz            0.57     -3.41   -3.98  SiO2
  SiO2(a)          -0.69     -3.41   -2.71  SiO2

**For a gas, SI = log10(fugacity). Fugacity = pressure * phi / 1 atm.
  For ideal gases, phi = 1.

Reaction step 100.

Using solution 1.	
Using pure phase assemblage 1.	
Using kinetics 1.	

Kinetics 1.	

	Time step: 1.57788e+09 seconds  (Incremented time: 1.57788e+11 seconds)

	Rate name       Delta Moles Total Moles   Reactant        Coefficient

	Albite           -5.214e-08   9.987e-02   Albite                    1

-------------------------------Phase assemblage--------------------------------

                                                      Moles in assemblage
Phase               SI  log IAP  log K(T, P)   Initial       Final       Delta

CO2(g)           -3.50    -4.97     -1.47    1.000e+01   1.000e+01  -1.387e-09
O2(g)            -0.70    -3.59     -2.89    1.000e+01   1.000e+01   4.997e-12

-----------------------------Solution composition------------------------------

	Elements           Molality       Moles

	Al                1.311e-04   1.311e-04
	C                 1.163e-04   1.163e-04
	Na                1.311e-04   1.311e-04
	Si                3.934e-04   3.934e-04

----------------------------Description of solution----------------------------

                                       pH  =   7.336      Charge balance
                                       pe  =  13.286      Adjusted to redox equilibrium
      Specific Conductance (µS/cm,  25°C)  = 11
                          Density (g/cm³)  =   0.99708
                               Volume (L)  =   1.00298
                        Activity of water  =   1.000
                 Ionic strength (mol/kgw)  =   1.833e-04
                       Mass of water (kg)  =   1.000e+00
                 Total alkalinity (eq/kg)  =   6.266e-04
                       Total CO2 (mol/kg)  =   1.163e-04
                         Temperature (°C)  =  25.00
                  Electrical balance (eq)  =  -1.021e-04
 Percent error, 100*(Cat-|An|)/(Cat+|An|)  = -27.86
                               Iterations  =   4
                                  Total H  = 1.110125e+02
                                  Total O  = 5.550811e+01

----------------------------Distribution of species----------------------------

                                               Log       Log       Log    mole V
   Species          Molality    Activity  Molality  Activity     Gamma   cm³/mol

   OH-             2.229e-07   2.195e-07    -6.652    -6.659    -0.007     -4.13
   H+              4.682e-08   4.611e-08    -7.330    -7.336    -0.007      0.00
   H2O             5.551e+01   1.000e+00     1.744    -0.000     0.000     18.07
Al            1.311e-04
   Al(OH)4-        1.271e-04   1.251e-04    -3.896    -3.903    -0.007     (0)  
   Al(OH)3         3.061e-06   3.061e-06    -5.514    -5.514     0.000     (0)  
   Al(OH)2+        9.732e-07   9.582e-07    -6.012    -6.019    -0.007     (0)  
   AlOH+2          5.999e-09   5.638e-09    -8.222    -8.249    -0.027    -27.82
   Al+3            3.003e-11   2.617e-11   -10.522   -10.582    -0.060    -42.42
C(-4)         0.000e+00
   CH4             0.000e+00   0.000e+00  -145.553  -145.553     0.000     35.46
C(4)          1.163e-04
   HCO3-           1.054e-04   1.038e-04    -3.977    -3.984    -0.007     24.66
   CO2             1.076e-05   1.076e-05    -4.968    -4.968     0.000     34.43
   CO3-2           1.123e-07   1.055e-07    -6.950    -6.977    -0.027     -5.34
   NaHCO3          7.534e-09   7.534e-09    -8.123    -8.123     0.000      1.80
   NaCO3-          2.577e-10   2.537e-10    -9.589    -9.596    -0.007     -1.05
   (CO2)2          2.125e-12   2.125e-12   -11.673   -11.673     0.000     68.87
H(0)          0.000e+00
   H2              0.000e+00   0.000e+00   -44.394   -44.394     0.000     28.61
Na            1.311e-04
   Na+             1.311e-04   1.291e-04    -3.882    -3.889    -0.007     -1.50
   NaHCO3          7.534e-09   7.534e-09    -8.123    -8.123     0.000      1.80
   NaCO3-          2.577e-10   2.537e-10    -9.589    -9.596    -0.007     -1.05
   NaOH            2.833e-21   2.833e-21   -20.548   -20.548     0.000     (0)  
O(0)          5.112e-04
   O2              2.556e-04   2.556e-04    -3.592    -3.592     0.000     30.40
Si            3.934e-04
   H4SiO4          3.921e-04   3.921e-04    -3.407    -3.407     0.000     52.08
   H3SiO4-         1.274e-06   1.254e-06    -5.895    -5.902    -0.007     27.96
   H2SiO4-2        1.968e-12   1.849e-12   -11.706   -11.733    -0.027     (0)  

------------------------------Saturation indices-------------------------------

  Phase               SI** log IAP   log K(298 K,   1 atm)

  Al(OH)3(a)        0.63     11.43   10.80  Al(OH)3
  Albite           -0.01    -18.01  -18.00  NaAlSi3O8
  CH4(g)         -142.75   -145.55   -2.80  CH4
  Chalcedony        0.14     -3.41   -3.55  SiO2
  CO2(g)           -3.50     -4.97   -1.47  CO2	 Pressure   0.0 atm, phi 1.000
  Gibbsite          3.32     11.43    8.11  Al(OH)3
  H2(g)           -41.29    -44.39   -3.10  H2
  H2O(g)           -1.50     -0.00    1.50  H2O
  Kaolinite         8.60     16.04    7.43  Al2Si2O5(OH)4
  O2(g)            -0.70     -3.59   -2.89  O2	 Pressure   0.2 atm, phi 1.000
  Quartz            0.57     -3.41   -3.98  SiO2
  SiO2(a)          -0.69     -3.41   -2.71  SiO2

**For a gas, SI = log10(fugacity). Fugacity = pressure * phi / 1 atm.
  For ideal gases, phi = 1.

------------------
End of simulation.
------------------

------------------------------------
Reading input data for simulation 2.
------------------------------------

-------------------------------
End of Run after 5.837 Seconds.
-------------------------------

