   Input file: l.phr
  Output file: l.phr.out
Database file: C:\Users\Eirik\Desktop\phreeqc-3.6.2-15100-x64\database\phreeqc.dat

------------------
Reading data base.
------------------

	SOLUTION_MASTER_SPECIES
	SOLUTION_SPECIES
	PHASES
	EXCHANGE_MASTER_SPECIES
	EXCHANGE_SPECIES
	SURFACE_MASTER_SPECIES
	SURFACE_SPECIES
	RATES
	END
------------------------------------
Reading input data for simulation 1.
------------------------------------

	Database file: C:\Users\Eirik\Desktop\phreeqc-3.6.2-15100-x64\database\phreeqc.dat
	SOLUTION 1
		temp 25
	RATES 
	Calcite
	start
		1   REM   PARM(1) = specific surface area of calcite, cm^2/mol calcite
		2   REM   PARM(2) = exponent for M/M0
		10  si_cc = SI("Calcite")
		20  IF (M <= 0  and si_cc < 0) THEN GOTO 200
		30  k1 = 10^(0.198 - 444.0 / TK )
		40  k2 = 10^(2.84 - 2177.0 /TK )
		50  IF TC <= 25 THEN k3 = 10^(-5.86 - 317.0 / TK)
		60  IF TC > 25 THEN k3 = 10^(-1.1 - 1737.0 / TK )
		80  IF M0 > 0 THEN area = PARM(1)*M0*(M/M0)^PARM(2) ELSE area = PARM(1)*M
		110 rate = area * (k1 * ACT("H+") + k2 * ACT("CO2") + k3 * ACT("H2O"))
		120 rate = rate * (1 - 10^(2/3*si_cc))
		130 moles = rate * 0.001 * TIME # convert from mmol to mol
		200 SAVE moles
	end
	KINETICS 1
	Calcite
	 tol   1e-8
	 m0    0
	 m     1e-3
	 parms 1.67e5   0.6  # cm^2/mol calcite, exp factor
	 time_steps  50 year in 100
	INCREMENTAL_REACTIONS true
	USER_PUNCH 				#Write the simulation time in years to the selected output file
		headings time_yr
		10 PUNCH total_time/3.1536e7 
	SELECTED_OUTPUT 
		file ex1.xls
		reset false
		time true
		kinetic_reactants Calcite
		saturation_indices Calcite
		step true
		ph true
	USER_GRAPH 1
		-chart_title "Calcite saturation, T=25, no equilibrium gas"
		-axis_titles "Years" "SR" "Calcite remaining (mmol)"
		-headings time SR Calcite_remaining
		-initial_solutions  false
		-start
		10 graph_x total_time/3.1536e7 		
		20 graph_y SR("Calcite")		
		30 graph_sy KIN("Calcite")*1e3		
		-end
	END
-------------------------------------------
Beginning of initial solution calculations.
-------------------------------------------

Initial solution 1.	

-----------------------------Solution composition------------------------------

	Elements           Molality       Moles

	Pure water     

----------------------------Description of solution----------------------------

                                       pH  =   7.000    
                                       pe  =   4.000    
      Specific Conductance (µS/cm,  25°C)  = 0
                          Density (g/cm³)  =   0.99704
                               Volume (L)  =   1.00297
                        Activity of water  =   1.000
                 Ionic strength (mol/kgw)  =   1.007e-07
                       Mass of water (kg)  =   1.000e+00
                 Total alkalinity (eq/kg)  =   1.217e-09
                         Temperature (°C)  =  25.00
                  Electrical balance (eq)  =  -1.217e-09
 Percent error, 100*(Cat-|An|)/(Cat+|An|)  =  -0.60
                               Iterations  =   0
                                  Total H  = 1.110124e+02
                                  Total O  = 5.550622e+01

----------------------------Distribution of species----------------------------

                                               Log       Log       Log    mole V
   Species          Molality    Activity  Molality  Activity     Gamma   cm³/mol

   OH-             1.013e-07   1.012e-07    -6.995    -6.995    -0.000     -4.14
   H+              1.001e-07   1.000e-07    -7.000    -7.000    -0.000      0.00
   H2O             5.551e+01   1.000e+00     1.744     0.000     0.000     18.07
H(0)          1.416e-25
   H2              7.079e-26   7.079e-26   -25.150   -25.150     0.000     28.61
O(0)          0.000e+00
   O2              0.000e+00   0.000e+00   -42.080   -42.080     0.000     30.40

------------------------------Saturation indices-------------------------------

  Phase               SI** log IAP   log K(298 K,   1 atm)

  H2(g)           -22.05    -25.15   -3.10  H2
  H2O(g)           -1.50      0.00    1.50  H2O
  O2(g)           -39.19    -42.08   -2.89  O2

**For a gas, SI = log10(fugacity). Fugacity = pressure * phi / 1 atm.
  For ideal gases, phi = 1.

-----------------------------------------
Beginning of batch-reaction calculations.
-----------------------------------------

Reaction step 1.

WARNING: Negative moles in solution 1 for C, -1.092718e-02. Recovering...
WARNING: Negative moles in solution 1 for C, -1.674944e-03. Recovering...
Using solution 1.	
Using kinetics 1.	

Kinetics 1.	

	Time step: 1.57788e+07 seconds  (Incremented time: 1.57788e+07 seconds)

	Rate name       Delta Moles Total Moles   Reactant        Coefficient

	Calcite          -1.230e-04   8.770e-04   Calcite                   1

-----------------------------Solution composition------------------------------

	Elements           Molality       Moles

	C                 1.230e-04   1.230e-04
	Ca                1.230e-04   1.230e-04

----------------------------Description of solution----------------------------

                                       pH  =   9.907      Charge balance
                                       pe  =   8.783      Adjusted to redox equilibrium
      Specific Conductance (µS/cm,  25°C)  = 38
                          Density (g/cm³)  =   0.99706
                               Volume (L)  =   1.00296
                        Activity of water  =   1.000
                 Ionic strength (mol/kgw)  =   3.856e-04
                       Mass of water (kg)  =   1.000e+00
                 Total alkalinity (eq/kg)  =   2.460e-04
                       Total CO2 (mol/kg)  =   1.230e-04
                         Temperature (°C)  =  25.00
                  Electrical balance (eq)  =  -1.237e-09
 Percent error, 100*(Cat-|An|)/(Cat+|An|)  =  -0.00
                               Iterations  = 7741 (7725 overall)
                                  Total H  = 1.110124e+02
                                  Total O  = 5.550659e+01

----------------------------Distribution of species----------------------------

                                               Log       Log       Log    mole V
   Species          Molality    Activity  Molality  Activity     Gamma   cm³/mol

   OH-             8.353e-05   8.167e-05    -4.078    -4.088    -0.010     -4.12
   H+              1.267e-10   1.239e-10    -9.897    -9.907    -0.009      0.00
   H2O             5.551e+01   1.000e+00     1.744    -0.000     0.000     18.07
C(-4)         0.000e+00
   CH4             0.000e+00   0.000e+00  -132.770  -132.770     0.000     35.46
C(4)          1.230e-04
   HCO3-           8.352e-05   8.168e-05    -4.078    -4.088    -0.010     24.67
   CO3-2           3.379e-05   3.091e-05    -4.471    -4.510    -0.039     -5.32
   CaCO3           5.564e-06   5.565e-06    -5.255    -5.255     0.000    -14.60
   CaHCO3+         1.142e-07   1.117e-07    -6.942    -6.952    -0.010      9.66
   CO2             2.276e-08   2.276e-08    -7.643    -7.643     0.000     34.43
   (CO2)2          9.507e-18   9.508e-18   -17.022   -17.022     0.000     68.87
Ca            1.230e-04
   Ca+2            1.172e-04   1.072e-04    -3.931    -3.970    -0.039    -18.18
   CaCO3           5.564e-06   5.565e-06    -5.255    -5.255     0.000    -14.60
   CaOH+           1.468e-07   1.435e-07    -6.833    -6.843    -0.010     (0)  
   CaHCO3+         1.142e-07   1.117e-07    -6.942    -6.952    -0.010      9.66
H(0)          0.000e+00
   H2              0.000e+00   0.000e+00   -40.529   -40.529     0.000     28.61
O(0)          9.541e-12
   O2              4.771e-12   4.771e-12   -11.321   -11.321     0.000     30.40

------------------------------Saturation indices-------------------------------

  Phase               SI** log IAP   log K(298 K,   1 atm)

  Aragonite        -0.14     -8.48   -8.34  CaCO3
  Calcite          -0.00     -8.48   -8.48  CaCO3
  CH4(g)         -129.97   -132.77   -2.80  CH4
  CO2(g)           -6.17     -7.64   -1.47  CO2
  H2(g)           -37.43    -40.53   -3.10  H2
  H2O(g)           -1.50     -0.00    1.50  H2O
  O2(g)            -8.43    -11.32   -2.89  O2

**For a gas, SI = log10(fugacity). Fugacity = pressure * phi / 1 atm.
  For ideal gases, phi = 1.

Reaction step 2.

WARNING: Negative moles in solution 1 for C, -1.791900e-04. Recovering...
WARNING: Negative moles in solution 1 for C, -8.472121e-02. Recovering...
Using solution 1.	
Using kinetics 1.	

Kinetics 1.	

	Time step: 1.57788e+07 seconds  (Incremented time: 3.15576e+07 seconds)

	Rate name       Delta Moles Total Moles   Reactant        Coefficient

	Calcite          -1.460e-10   8.770e-04   Calcite                   1

-----------------------------Solution composition------------------------------

	Elements           Molality       Moles

	C                 1.230e-04   1.230e-04
	Ca                1.230e-04   1.230e-04

----------------------------Description of solution----------------------------

                                       pH  =   9.907      Charge balance
                                       pe  =   8.784      Adjusted to redox equilibrium
      Specific Conductance (µS/cm,  25°C)  = 38
                          Density (g/cm³)  =   0.99706
                               Volume (L)  =   1.00296
                        Activity of water  =   1.000
                 Ionic strength (mol/kgw)  =   3.856e-04
                       Mass of water (kg)  =   1.000e+00
                 Total alkalinity (eq/kg)  =   2.460e-04
                       Total CO2 (mol/kg)  =   1.230e-04
                         Temperature (°C)  =  25.00
                  Electrical balance (eq)  =  -1.255e-09
 Percent error, 100*(Cat-|An|)/(Cat+|An|)  =  -0.00
                               Iterations  = 7441 (7430 overall)
                                  Total H  = 1.110124e+02
                                  Total O  = 5.550659e+01

----------------------------Distribution of species----------------------------

                                               Log       Log       Log    mole V
   Species          Molality    Activity  Molality  Activity     Gamma   cm³/mol

   OH-             8.353e-05   8.167e-05    -4.078    -4.088    -0.010     -4.12
   H+              1.267e-10   1.239e-10    -9.897    -9.907    -0.009      0.00
   H2O             5.551e+01   1.000e+00     1.744    -0.000     0.000     18.07
C(-4)         0.000e+00
   CH4             0.000e+00   0.000e+00  -132.783  -132.783     0.000     35.46
C(4)          1.230e-04
   HCO3-           8.352e-05   8.168e-05    -4.078    -4.088    -0.010     24.67
   CO3-2           3.379e-05   3.091e-05    -4.471    -4.510    -0.039     -5.32
   CaCO3           5.564e-06   5.565e-06    -5.255    -5.255     0.000    -14.60
   CaHCO3+         1.142e-07   1.117e-07    -6.942    -6.952    -0.010      9.66
   CO2             2.276e-08   2.276e-08    -7.643    -7.643     0.000     34.43
   (CO2)2          9.507e-18   9.508e-18   -17.022   -17.022     0.000     68.87
Ca            1.230e-04
   Ca+2            1.172e-04   1.072e-04    -3.931    -3.970    -0.039    -18.18
   CaCO3           5.564e-06   5.565e-06    -5.255    -5.255     0.000    -14.60
   CaOH+           1.468e-07   1.435e-07    -6.833    -6.843    -0.010     (0)  
   CaHCO3+         1.142e-07   1.117e-07    -6.942    -6.952    -0.010      9.66
H(0)          0.000e+00
   H2              0.000e+00   0.000e+00   -40.533   -40.532     0.000     28.61
O(0)          9.682e-12
   O2              4.841e-12   4.841e-12   -11.315   -11.315     0.000     30.40

------------------------------Saturation indices-------------------------------

  Phase               SI** log IAP   log K(298 K,   1 atm)

  Aragonite        -0.14     -8.48   -8.34  CaCO3
  Calcite          -0.00     -8.48   -8.48  CaCO3
  CH4(g)         -129.98   -132.78   -2.80  CH4
  CO2(g)           -6.17     -7.64   -1.47  CO2
  H2(g)           -37.43    -40.53   -3.10  H2
  H2O(g)           -1.50     -0.00    1.50  H2O
  O2(g)            -8.42    -11.32   -2.89  O2

**For a gas, SI = log10(fugacity). Fugacity = pressure * phi / 1 atm.
  For ideal gases, phi = 1.

Reaction step 3.

WARNING: Negative moles in solution 1 for C, -3.913649e-05. Recovering...
WARNING: Negative moles in solution 1 for C, -6.290800e-02. Recovering...
Using solution 1.	
Using kinetics 1.	

Kinetics 1.	

	Time step: 1.57788e+07 seconds  (Incremented time: 4.73364e+07 seconds)

	Rate name       Delta Moles Total Moles   Reactant        Coefficient

	Calcite          -5.419e-11   8.770e-04   Calcite                   1

-----------------------------Solution composition------------------------------

	Elements           Molality       Moles

	C                 1.230e-04   1.230e-04
	Ca                1.230e-04   1.230e-04

----------------------------Description of solution----------------------------

                                       pH  =   9.907      Charge balance
                                       pe  =   8.783      Adjusted to redox equilibrium
      Specific Conductance (µS/cm,  25°C)  = 38
                          Density (g/cm³)  =   0.99706
                               Volume (L)  =   1.00296
                        Activity of water  =   1.000
                 Ionic strength (mol/kgw)  =   3.856e-04
                       Mass of water (kg)  =   1.000e+00
                 Total alkalinity (eq/kg)  =   2.460e-04
                       Total CO2 (mol/kg)  =   1.230e-04
                         Temperature (°C)  =  25.00
                  Electrical balance (eq)  =  -1.274e-09
 Percent error, 100*(Cat-|An|)/(Cat+|An|)  =  -0.00
                               Iterations  = 7422 (7413 overall)
                                  Total H  = 1.110124e+02
                                  Total O  = 5.550659e+01

----------------------------Distribution of species----------------------------

                                               Log       Log       Log    mole V
   Species          Molality    Activity  Molality  Activity     Gamma   cm³/mol

   OH-             8.353e-05   8.167e-05    -4.078    -4.088    -0.010     -4.12
   H+              1.267e-10   1.239e-10    -9.897    -9.907    -0.009      0.00
   H2O             5.551e+01   1.000e+00     1.744    -0.000     0.000     18.07
C(-4)         0.000e+00
   CH4             0.000e+00   0.000e+00  -132.773  -132.773     0.000     35.46
C(4)          1.230e-04
   HCO3-           8.352e-05   8.168e-05    -4.078    -4.088    -0.010     24.67
   CO3-2           3.379e-05   3.091e-05    -4.471    -4.510    -0.039     -5.32
   CaCO3           5.564e-06   5.565e-06    -5.255    -5.255     0.000    -14.60
   CaHCO3+         1.142e-07   1.117e-07    -6.942    -6.952    -0.010      9.66
   CO2             2.276e-08   2.276e-08    -7.643    -7.643     0.000     34.43
   (CO2)2          9.507e-18   9.508e-18   -17.022   -17.022     0.000     68.87
Ca            1.230e-04
   Ca+2            1.172e-04   1.072e-04    -3.931    -3.970    -0.039    -18.18
   CaCO3           5.564e-06   5.565e-06    -5.255    -5.255     0.000    -14.60
   CaOH+           1.468e-07   1.435e-07    -6.833    -6.843    -0.010     (0)  
   CaHCO3+         1.142e-07   1.117e-07    -6.942    -6.952    -0.010      9.66
H(0)          0.000e+00
   H2              0.000e+00   0.000e+00   -40.530   -40.530     0.000     28.61
O(0)          9.572e-12
   O2              4.786e-12   4.787e-12   -11.320   -11.320     0.000     30.40

------------------------------Saturation indices-------------------------------

  Phase               SI** log IAP   log K(298 K,   1 atm)

  Aragonite        -0.14     -8.48   -8.34  CaCO3
  Calcite          -0.00     -8.48   -8.48  CaCO3
  CH4(g)         -129.97   -132.77   -2.80  CH4
  CO2(g)           -6.17     -7.64   -1.47  CO2
  H2(g)           -37.43    -40.53   -3.10  H2
  H2O(g)           -1.50     -0.00    1.50  H2O
  O2(g)            -8.43    -11.32   -2.89  O2

**For a gas, SI = log10(fugacity). Fugacity = pressure * phi / 1 atm.
  For ideal gases, phi = 1.

Reaction step 4.

WARNING: Negative moles in solution 1 for C, -6.123753e-03. Recovering...
Using solution 1.	
Using kinetics 1.	

Kinetics 1.	

	Time step: 1.57788e+07 seconds  (Incremented time: 6.31152e+07 seconds)

	Rate name       Delta Moles Total Moles   Reactant        Coefficient

	Calcite           6.545e-11   8.770e-04   Calcite                   1

-----------------------------Solution composition------------------------------

	Elements           Molality       Moles

	C                 1.230e-04   1.230e-04
	Ca                1.230e-04   1.230e-04

----------------------------Description of solution----------------------------

                                       pH  =   9.907      Charge balance
                                       pe  =   8.786      Adjusted to redox equilibrium
      Specific Conductance (µS/cm,  25°C)  = 38
                          Density (g/cm³)  =   0.99706
                               Volume (L)  =   1.00296
                        Activity of water  =   1.000
                 Ionic strength (mol/kgw)  =   3.856e-04
                       Mass of water (kg)  =   1.000e+00
                 Total alkalinity (eq/kg)  =   2.460e-04
                       Total CO2 (mol/kg)  =   1.230e-04
                         Temperature (°C)  =  25.00
                  Electrical balance (eq)  =  -1.293e-09
 Percent error, 100*(Cat-|An|)/(Cat+|An|)  =  -0.00
                               Iterations  = 7447 (7439 overall)
                                  Total H  = 1.110124e+02
                                  Total O  = 5.550659e+01

----------------------------Distribution of species----------------------------

                                               Log       Log       Log    mole V
   Species          Molality    Activity  Molality  Activity     Gamma   cm³/mol

   OH-             8.353e-05   8.167e-05    -4.078    -4.088    -0.010     -4.12
   H+              1.267e-10   1.239e-10    -9.897    -9.907    -0.009      0.00
   H2O             5.551e+01   1.000e+00     1.744    -0.000     0.000     18.07
C(-4)         0.000e+00
   CH4             0.000e+00   0.000e+00  -132.794  -132.794     0.000     35.46
C(4)          1.230e-04
   HCO3-           8.352e-05   8.168e-05    -4.078    -4.088    -0.010     24.67
   CO3-2           3.379e-05   3.091e-05    -4.471    -4.510    -0.039     -5.32
   CaCO3           5.564e-06   5.565e-06    -5.255    -5.255     0.000    -14.60
   CaHCO3+         1.142e-07   1.117e-07    -6.942    -6.952    -0.010      9.66
   CO2             2.276e-08   2.276e-08    -7.643    -7.643     0.000     34.43
   (CO2)2          9.507e-18   9.508e-18   -17.022   -17.022     0.000     68.87
Ca            1.230e-04
   Ca+2            1.172e-04   1.072e-04    -3.931    -3.970    -0.039    -18.18
   CaCO3           5.564e-06   5.565e-06    -5.255    -5.255     0.000    -14.60
   CaOH+           1.468e-07   1.435e-07    -6.833    -6.843    -0.010     (0)  
   CaHCO3+         1.142e-07   1.117e-07    -6.942    -6.952    -0.010      9.66
H(0)          0.000e+00
   H2              0.000e+00   0.000e+00   -40.535   -40.535     0.000     28.61
O(0)          9.810e-12
   O2              4.905e-12   4.905e-12   -11.309   -11.309     0.000     30.40

------------------------------Saturation indices-------------------------------

  Phase               SI** log IAP   log K(298 K,   1 atm)

  Aragonite        -0.14     -8.48   -8.34  CaCO3
  Calcite          -0.00     -8.48   -8.48  CaCO3
  CH4(g)         -129.99   -132.79   -2.80  CH4
  CO2(g)           -6.17     -7.64   -1.47  CO2
  H2(g)           -37.43    -40.54   -3.10  H2
  H2O(g)           -1.50     -0.00    1.50  H2O
  O2(g)            -8.42    -11.31   -2.89  O2

**For a gas, SI = log10(fugacity). Fugacity = pressure * phi / 1 atm.
  For ideal gases, phi = 1.

Reaction step 5.

WARNING: Negative moles in solution 1 for C, -8.507027e-03. Recovering...
Using solution 1.	
Using kinetics 1.	

Kinetics 1.	

	Time step: 1.57788e+07 seconds  (Incremented time: 7.8894e+07 seconds)

	Rate name       Delta Moles Total Moles   Reactant        Coefficient

	Calcite           3.077e-10   8.770e-04   Calcite                   1

-----------------------------Solution composition------------------------------

	Elements           Molality       Moles

	C                 1.230e-04   1.230e-04
	Ca                1.230e-04   1.230e-04

----------------------------Description of solution----------------------------

                                       pH  =   9.907      Charge balance
                                       pe  =   8.787      Adjusted to redox equilibrium
      Specific Conductance (µS/cm,  25°C)  = 38
                          Density (g/cm³)  =   0.99706
                               Volume (L)  =   1.00296
                        Activity of water  =   1.000
                 Ionic strength (mol/kgw)  =   3.856e-04
                       Mass of water (kg)  =   1.000e+00
                 Total alkalinity (eq/kg)  =   2.460e-04
                       Total CO2 (mol/kg)  =   1.230e-04
                         Temperature (°C)  =  25.00
                  Electrical balance (eq)  =  -1.311e-09
 Percent error, 100*(Cat-|An|)/(Cat+|An|)  =  -0.00
                               Iterations  = 7416 (7408 overall)
                                  Total H  = 1.110124e+02
                                  Total O  = 5.550659e+01

----------------------------Distribution of species----------------------------

                                               Log       Log       Log    mole V
   Species          Molality    Activity  Molality  Activity     Gamma   cm³/mol

   OH-             8.353e-05   8.167e-05    -4.078    -4.088    -0.010     -4.12
   H+              1.267e-10   1.239e-10    -9.897    -9.907    -0.009      0.00
   H2O             5.551e+01   1.000e+00     1.744    -0.000     0.000     18.07
C(-4)         0.000e+00
   CH4             0.000e+00   0.000e+00  -132.800  -132.800     0.000     35.46
C(4)          1.230e-04
   HCO3-           8.352e-05   8.168e-05    -4.078    -4.088    -0.010     24.67
   CO3-2           3.379e-05   3.091e-05    -4.471    -4.510    -0.039     -5.32
   CaCO3           5.564e-06   5.565e-06    -5.255    -5.255     0.000    -14.60
   CaHCO3+         1.142e-07   1.117e-07    -6.942    -6.952    -0.010      9.66
   CO2             2.276e-08   2.276e-08    -7.643    -7.643     0.000     34.43
   (CO2)2          9.507e-18   9.508e-18   -17.022   -17.022     0.000     68.87
Ca            1.230e-04
   Ca+2            1.172e-04   1.072e-04    -3.931    -3.970    -0.039    -18.18
   CaCO3           5.564e-06   5.565e-06    -5.255    -5.255     0.000    -14.60
   CaOH+           1.468e-07   1.435e-07    -6.833    -6.843    -0.010     (0)  
   CaHCO3+         1.142e-07   1.117e-07    -6.942    -6.952    -0.010      9.66
H(0)          0.000e+00
   H2              0.000e+00   0.000e+00   -40.537   -40.537     0.000     28.61
O(0)          9.879e-12
   O2              4.939e-12   4.940e-12   -11.306   -11.306     0.000     30.40

------------------------------Saturation indices-------------------------------

  Phase               SI** log IAP   log K(298 K,   1 atm)

  Aragonite        -0.14     -8.48   -8.34  CaCO3
  Calcite          -0.00     -8.48   -8.48  CaCO3
  CH4(g)         -130.00   -132.80   -2.80  CH4
  CO2(g)           -6.17     -7.64   -1.47  CO2
  H2(g)           -37.44    -40.54   -3.10  H2
  H2O(g)           -1.50     -0.00    1.50  H2O
  O2(g)            -8.41    -11.31   -2.89  O2

**For a gas, SI = log10(fugacity). Fugacity = pressure * phi / 1 atm.
  For ideal gases, phi = 1.

Reaction step 6.

WARNING: Negative moles in solution 1 for C, -2.944563e-05. Recovering...
WARNING: Negative moles in solution 1 for C, -6.012495e-02. Recovering...
Using solution 1.	
Using kinetics 1.	

Kinetics 1.	

	Time step: 1.57788e+07 seconds  (Incremented time: 9.46728e+07 seconds)

	Rate name       Delta Moles Total Moles   Reactant        Coefficient

	Calcite          -1.373e-11   8.770e-04   Calcite                   1

-----------------------------Solution composition------------------------------

	Elements           Molality       Moles

	C                 1.230e-04   1.230e-04
	Ca                1.230e-04   1.230e-04

----------------------------Description of solution----------------------------

                                       pH  =   9.907      Charge balance
                                       pe  =   8.791      Adjusted to redox equilibrium
      Specific Conductance (µS/cm,  25°C)  = 38
                          Density (g/cm³)  =   0.99706
                               Volume (L)  =   1.00296
                        Activity of water  =   1.000
                 Ionic strength (mol/kgw)  =   3.856e-04
                       Mass of water (kg)  =   1.000e+00
                 Total alkalinity (eq/kg)  =   2.460e-04
                       Total CO2 (mol/kg)  =   1.230e-04
                         Temperature (°C)  =  25.00
                  Electrical balance (eq)  =  -1.330e-09
 Percent error, 100*(Cat-|An|)/(Cat+|An|)  =  -0.00
                               Iterations  = 7423 (7415 overall)
                                  Total H  = 1.110124e+02
                                  Total O  = 5.550659e+01

----------------------------Distribution of species----------------------------

                                               Log       Log       Log    mole V
   Species          Molality    Activity  Molality  Activity     Gamma   cm³/mol

   OH-             8.353e-05   8.167e-05    -4.078    -4.088    -0.010     -4.12
   H+              1.267e-10   1.239e-10    -9.897    -9.907    -0.009      0.00
   H2O             5.551e+01   1.000e+00     1.744    -0.000     0.000     18.07
C(-4)         0.000e+00
   CH4             0.000e+00   0.000e+00  -132.832  -132.832     0.000     35.46
C(4)          1.230e-04
   HCO3-           8.352e-05   8.168e-05    -4.078    -4.088    -0.010     24.67
   CO3-2           3.379e-05   3.091e-05    -4.471    -4.510    -0.039     -5.32
   CaCO3           5.564e-06   5.565e-06    -5.255    -5.255     0.000    -14.60
   CaHCO3+         1.142e-07   1.117e-07    -6.942    -6.952    -0.010      9.66
   CO2             2.276e-08   2.276e-08    -7.643    -7.643     0.000     34.43
   (CO2)2          9.507e-18   9.508e-18   -17.022   -17.022     0.000     68.87
Ca            1.230e-04
   Ca+2            1.172e-04   1.072e-04    -3.931    -3.970    -0.039    -18.18
   CaCO3           5.564e-06   5.565e-06    -5.255    -5.255     0.000    -14.60
   CaOH+           1.468e-07   1.435e-07    -6.833    -6.843    -0.010     (0)  
   CaHCO3+         1.142e-07   1.117e-07    -6.942    -6.952    -0.010      9.66
H(0)          0.000e+00
   H2              0.000e+00   0.000e+00   -40.545   -40.545     0.000     28.61
O(0)          1.025e-11
   O2              5.127e-12   5.127e-12   -11.290   -11.290     0.000     30.40

------------------------------Saturation indices-------------------------------

  Phase               SI** log IAP   log K(298 K,   1 atm)

  Aragonite        -0.14     -8.48   -8.34  CaCO3
  Calcite          -0.00     -8.48   -8.48  CaCO3
  CH4(g)         -130.03   -132.83   -2.80  CH4
  CO2(g)           -6.17     -7.64   -1.47  CO2
  H2(g)           -37.44    -40.54   -3.10  H2
  H2O(g)           -1.50     -0.00    1.50  H2O
  O2(g)            -8.40    -11.29   -2.89  O2

**For a gas, SI = log10(fugacity). Fugacity = pressure * phi / 1 atm.
  For ideal gases, phi = 1.

Reaction step 7.

WARNING: Negative moles in solution 1 for C, -5.469306e-03. Recovering...
Using solution 1.	
Using kinetics 1.	

Kinetics 1.	

	Time step: 1.57788e+07 seconds  (Incremented time: 1.10452e+08 seconds)

	Rate name       Delta Moles Total Moles   Reactant        Coefficient

	Calcite           5.293e-10   8.770e-04   Calcite                   1

-----------------------------Solution composition------------------------------

	Elements           Molality       Moles

	C                 1.230e-04   1.230e-04
	Ca                1.230e-04   1.230e-04

----------------------------Description of solution----------------------------

                                       pH  =   9.907      Charge balance
                                       pe  =   8.792      Adjusted to redox equilibrium
      Specific Conductance (µS/cm,  25°C)  = 38
                          Density (g/cm³)  =   0.99706
                               Volume (L)  =   1.00296
                        Activity of water  =   1.000
                 Ionic strength (mol/kgw)  =   3.856e-04
                       Mass of water (kg)  =   1.000e+00
                 Total alkalinity (eq/kg)  =   2.460e-04
                       Total CO2 (mol/kg)  =   1.230e-04
                         Temperature (°C)  =  25.00
                  Electrical balance (eq)  =  -1.349e-09
 Percent error, 100*(Cat-|An|)/(Cat+|An|)  =  -0.00
                               Iterations  = 7414 (7406 overall)
                                  Total H  = 1.110124e+02
                                  Total O  = 5.550659e+01

----------------------------Distribution of species----------------------------

                                               Log       Log       Log    mole V
   Species          Molality    Activity  Molality  Activity     Gamma   cm³/mol

   OH-             8.353e-05   8.167e-05    -4.078    -4.088    -0.010     -4.12
   H+              1.267e-10   1.239e-10    -9.897    -9.907    -0.009      0.00
   H2O             5.551e+01   1.000e+00     1.744    -0.000     0.000     18.07
C(-4)         0.000e+00
   CH4             0.000e+00   0.000e+00  -132.840  -132.840     0.000     35.46
C(4)          1.230e-04
   HCO3-           8.352e-05   8.168e-05    -4.078    -4.088    -0.010     24.67
   CO3-2           3.379e-05   3.091e-05    -4.471    -4.510    -0.039     -5.32
   CaCO3           5.564e-06   5.565e-06    -5.255    -5.255     0.000    -14.60
   CaHCO3+         1.142e-07   1.117e-07    -6.942    -6.952    -0.010      9.66
   CO2             2.276e-08   2.276e-08    -7.643    -7.643     0.000     34.43
   (CO2)2          9.507e-18   9.508e-18   -17.022   -17.022     0.000     68.87
Ca            1.230e-04
   Ca+2            1.172e-04   1.072e-04    -3.931    -3.970    -0.039    -18.18
   CaCO3           5.564e-06   5.565e-06    -5.255    -5.255     0.000    -14.60
   CaOH+           1.468e-07   1.435e-07    -6.833    -6.843    -0.010     (0)  
   CaHCO3+         1.142e-07   1.117e-07    -6.942    -6.952    -0.010      9.66
H(0)          0.000e+00
   H2              0.000e+00   0.000e+00   -40.547   -40.547     0.000     28.61
O(0)          1.035e-11
   O2              5.173e-12   5.173e-12   -11.286   -11.286     0.000     30.40

------------------------------Saturation indices-------------------------------

  Phase               SI** log IAP   log K(298 K,   1 atm)

  Aragonite        -0.14     -8.48   -8.34  CaCO3
  Calcite          -0.00     -8.48   -8.48  CaCO3
  CH4(g)         -130.04   -132.84   -2.80  CH4
  CO2(g)           -6.17     -7.64   -1.47  CO2
  H2(g)           -37.45    -40.55   -3.10  H2
  H2O(g)           -1.50     -0.00    1.50  H2O
  O2(g)            -8.39    -11.29   -2.89  O2

**For a gas, SI = log10(fugacity). Fugacity = pressure * phi / 1 atm.
  For ideal gases, phi = 1.

Reaction step 8.

WARNING: Negative moles in solution 1 for C, -1.859122e-04. Recovering...
WARNING: Negative moles in solution 1 for C, -8.487775e-02. Recovering...
Using solution 1.	
Using kinetics 1.	

Kinetics 1.	

	Time step: 1.57788e+07 seconds  (Incremented time: 1.2623e+08 seconds)

	Rate name       Delta Moles Total Moles   Reactant        Coefficient

	Calcite           1.227e-09   8.770e-04   Calcite                   1

-----------------------------Solution composition------------------------------

	Elements           Molality       Moles

	C                 1.230e-04   1.230e-04
	Ca                1.230e-04   1.230e-04

----------------------------Description of solution----------------------------

                                       pH  =   9.907      Charge balance
                                       pe  =   8.790      Adjusted to redox equilibrium
      Specific Conductance (µS/cm,  25°C)  = 38
                          Density (g/cm³)  =   0.99706
                               Volume (L)  =   1.00296
                        Activity of water  =   1.000
                 Ionic strength (mol/kgw)  =   3.856e-04
                       Mass of water (kg)  =   1.000e+00
                 Total alkalinity (eq/kg)  =   2.460e-04
                       Total CO2 (mol/kg)  =   1.230e-04
                         Temperature (°C)  =  25.00
                  Electrical balance (eq)  =  -1.367e-09
 Percent error, 100*(Cat-|An|)/(Cat+|An|)  =  -0.00
                               Iterations  = 7424 (7413 overall)
                                  Total H  = 1.110124e+02
                                  Total O  = 5.550659e+01

----------------------------Distribution of species----------------------------

                                               Log       Log       Log    mole V
   Species          Molality    Activity  Molality  Activity     Gamma   cm³/mol

   OH-             8.353e-05   8.167e-05    -4.078    -4.088    -0.010     -4.12
   H+              1.267e-10   1.239e-10    -9.897    -9.907    -0.009      0.00
   H2O             5.551e+01   1.000e+00     1.744    -0.000     0.000     18.07
C(-4)         0.000e+00
   CH4             0.000e+00   0.000e+00  -132.824  -132.824     0.000     35.46
C(4)          1.230e-04
   HCO3-           8.352e-05   8.168e-05    -4.078    -4.088    -0.010     24.67
   CO3-2           3.379e-05   3.091e-05    -4.471    -4.510    -0.039     -5.32
   CaCO3           5.564e-06   5.565e-06    -5.255    -5.255     0.000    -14.60
   CaHCO3+         1.142e-07   1.117e-07    -6.942    -6.952    -0.010      9.66
   CO2             2.276e-08   2.276e-08    -7.643    -7.643     0.000     34.43
   (CO2)2          9.507e-18   9.508e-18   -17.022   -17.022     0.000     68.87
Ca            1.230e-04
   Ca+2            1.172e-04   1.072e-04    -3.931    -3.970    -0.039    -18.18
   CaCO3           5.564e-06   5.565e-06    -5.255    -5.255     0.000    -14.60
   CaOH+           1.468e-07   1.435e-07    -6.833    -6.843    -0.010     (0)  
   CaHCO3+         1.142e-07   1.117e-07    -6.942    -6.952    -0.010      9.66
H(0)          0.000e+00
   H2              0.000e+00   0.000e+00   -40.543   -40.543     0.000     28.61
O(0)          1.015e-11
   O2              5.076e-12   5.077e-12   -11.294   -11.294     0.000     30.40

------------------------------Saturation indices-------------------------------

  Phase               SI** log IAP   log K(298 K,   1 atm)

  Aragonite        -0.14     -8.48   -8.34  CaCO3
  Calcite          -0.00     -8.48   -8.48  CaCO3
  CH4(g)         -130.02   -132.82   -2.80  CH4
  CO2(g)           -6.17     -7.64   -1.47  CO2
  H2(g)           -37.44    -40.54   -3.10  H2
  H2O(g)           -1.50     -0.00    1.50  H2O
  O2(g)            -8.40    -11.29   -2.89  O2

**For a gas, SI = log10(fugacity). Fugacity = pressure * phi / 1 atm.
  For ideal gases, phi = 1.

Reaction step 9.

WARNING: Negative moles in solution 1 for C, -7.866485e-04. Recovering...
WARNING: Negative moles in solution 1 for C, -2.650713e-03. Recovering...
Using solution 1.	
Using kinetics 1.	

Kinetics 1.	

	Time step: 1.57788e+07 seconds  (Incremented time: 1.42009e+08 seconds)

	Rate name       Delta Moles Total Moles   Reactant        Coefficient

	Calcite          -9.275e-10   8.770e-04   Calcite                   1

-----------------------------Solution composition------------------------------

	Elements           Molality       Moles

	C                 1.230e-04   1.230e-04
	Ca                1.230e-04   1.230e-04

----------------------------Description of solution----------------------------

                                       pH  =   9.907      Charge balance
                                       pe  =   8.789      Adjusted to redox equilibrium
      Specific Conductance (µS/cm,  25°C)  = 38
                          Density (g/cm³)  =   0.99706
                               Volume (L)  =   1.00296
                        Activity of water  =   1.000
                 Ionic strength (mol/kgw)  =   3.856e-04
                       Mass of water (kg)  =   1.000e+00
                 Total alkalinity (eq/kg)  =   2.460e-04
                       Total CO2 (mol/kg)  =   1.230e-04
                         Temperature (°C)  =  25.00
                  Electrical balance (eq)  =  -1.386e-09
 Percent error, 100*(Cat-|An|)/(Cat+|An|)  =  -0.00
                               Iterations  = 7449 (7439 overall)
                                  Total H  = 1.110124e+02
                                  Total O  = 5.550659e+01

----------------------------Distribution of species----------------------------

                                               Log       Log       Log    mole V
   Species          Molality    Activity  Molality  Activity     Gamma   cm³/mol

   OH-             8.353e-05   8.167e-05    -4.078    -4.088    -0.010     -4.12
   H+              1.267e-10   1.239e-10    -9.897    -9.907    -0.009      0.00
   H2O             5.551e+01   1.000e+00     1.744    -0.000     0.000     18.07
C(-4)         0.000e+00
   CH4             0.000e+00   0.000e+00  -132.821  -132.821     0.000     35.46
C(4)          1.230e-04
   HCO3-           8.352e-05   8.168e-05    -4.078    -4.088    -0.010     24.67
   CO3-2           3.379e-05   3.091e-05    -4.471    -4.510    -0.039     -5.32
   CaCO3           5.564e-06   5.565e-06    -5.255    -5.255     0.000    -14.60
   CaHCO3+         1.142e-07   1.117e-07    -6.942    -6.952    -0.010      9.66
   CO2             2.276e-08   2.276e-08    -7.643    -7.643     0.000     34.43
   (CO2)2          9.507e-18   9.508e-18   -17.022   -17.022     0.000     68.87
Ca            1.230e-04
   Ca+2            1.172e-04   1.072e-04    -3.931    -3.970    -0.039    -18.18
   CaCO3           5.564e-06   5.565e-06    -5.255    -5.255     0.000    -14.60
   CaOH+           1.468e-07   1.435e-07    -6.833    -6.843    -0.010     (0)  
   CaHCO3+         1.142e-07   1.117e-07    -6.942    -6.952    -0.010      9.66
H(0)          0.000e+00
   H2              0.000e+00   0.000e+00   -40.542   -40.542     0.000     28.61
O(0)          1.012e-11
   O2              5.058e-12   5.059e-12   -11.296   -11.296     0.000     30.40

------------------------------Saturation indices-------------------------------

  Phase               SI** log IAP   log K(298 K,   1 atm)

  Aragonite        -0.14     -8.48   -8.34  CaCO3
  Calcite          -0.00     -8.48   -8.48  CaCO3
  CH4(g)         -130.02   -132.82   -2.80  CH4
  CO2(g)           -6.17     -7.64   -1.47  CO2
  H2(g)           -37.44    -40.54   -3.10  H2
  H2O(g)           -1.50     -0.00    1.50  H2O
  O2(g)            -8.40    -11.30   -2.89  O2

**For a gas, SI = log10(fugacity). Fugacity = pressure * phi / 1 atm.
  For ideal gases, phi = 1.

Reaction step 10.

WARNING: Negative moles in solution 1 for C, -2.257176e-04. Recovering...
WARNING: Negative moles in solution 1 for C, -8.411646e-02. Recovering...
Using solution 1.	
Using kinetics 1.	

Kinetics 1.	

	Time step: 1.57788e+07 seconds  (Incremented time: 1.57788e+08 seconds)

	Rate name       Delta Moles Total Moles   Reactant        Coefficient

	Calcite          -4.066e-10   8.770e-04   Calcite                   1

-----------------------------Solution composition------------------------------

	Elements           Molality       Moles

	C                 1.230e-04   1.230e-04
	Ca                1.230e-04   1.230e-04

----------------------------Description of solution----------------------------

                                       pH  =   9.907      Charge balance
                                       pe  =   8.791      Adjusted to redox equilibrium
      Specific Conductance (µS/cm,  25°C)  = 38
                          Density (g/cm³)  =   0.99706
                               Volume (L)  =   1.00296
                        Activity of water  =   1.000
                 Ionic strength (mol/kgw)  =   3.856e-04
                       Mass of water (kg)  =   1.000e+00
                 Total alkalinity (eq/kg)  =   2.460e-04
                       Total CO2 (mol/kg)  =   1.230e-04
                         Temperature (°C)  =  25.00
                  Electrical balance (eq)  =  -1.405e-09
 Percent error, 100*(Cat-|An|)/(Cat+|An|)  =  -0.00
                               Iterations  = 7413 (7402 overall)
                                  Total H  = 1.110124e+02
                                  Total O  = 5.550659e+01

----------------------------Distribution of species----------------------------

                                               Log       Log       Log    mole V
   Species          Molality    Activity  Molality  Activity     Gamma   cm³/mol

   OH-             8.353e-05   8.167e-05    -4.078    -4.088    -0.010     -4.12
   H+              1.267e-10   1.239e-10    -9.897    -9.907    -0.009      0.00
   H2O             5.551e+01   1.000e+00     1.744    -0.000     0.000     18.07
C(-4)         0.000e+00
   CH4             0.000e+00   0.000e+00  -132.837  -132.837     0.000     35.46
C(4)          1.230e-04
   HCO3-           8.352e-05   8.168e-05    -4.078    -4.088    -0.010     24.67
   CO3-2           3.379e-05   3.091e-05    -4.471    -4.510    -0.039     -5.32
   CaCO3           5.564e-06   5.565e-06    -5.255    -5.255     0.000    -14.60
   CaHCO3+         1.142e-07   1.117e-07    -6.942    -6.952    -0.010      9.66
   CO2             2.276e-08   2.276e-08    -7.643    -7.643     0.000     34.43
   (CO2)2          9.507e-18   9.508e-18   -17.022   -17.022     0.000     68.87
Ca            1.230e-04
   Ca+2            1.172e-04   1.072e-04    -3.931    -3.970    -0.039    -18.18
   CaCO3           5.564e-06   5.565e-06    -5.255    -5.255     0.000    -14.60
   CaOH+           1.468e-07   1.435e-07    -6.833    -6.843    -0.010     (0)  
   CaHCO3+         1.142e-07   1.117e-07    -6.942    -6.952    -0.010      9.66
H(0)          0.000e+00
   H2              0.000e+00   0.000e+00   -40.546   -40.546     0.000     28.61
O(0)          1.030e-11
   O2              5.152e-12   5.152e-12   -11.288   -11.288     0.000     30.40

------------------------------Saturation indices-------------------------------

  Phase               SI** log IAP   log K(298 K,   1 atm)

  Aragonite        -0.14     -8.48   -8.34  CaCO3
  Calcite          -0.00     -8.48   -8.48  CaCO3
  CH4(g)         -130.03   -132.84   -2.80  CH4
  CO2(g)           -6.17     -7.64   -1.47  CO2
  H2(g)           -37.44    -40.55   -3.10  H2
  H2O(g)           -1.50     -0.00    1.50  H2O
  O2(g)            -8.40    -11.29   -2.89  O2

**For a gas, SI = log10(fugacity). Fugacity = pressure * phi / 1 atm.
  For ideal gases, phi = 1.

Reaction step 11.

WARNING: Negative moles in solution 1 for C, -6.369628e-03. Recovering...
Using solution 1.	
Using kinetics 1.	

Kinetics 1.	

	Time step: 1.57788e+07 seconds  (Incremented time: 1.73567e+08 seconds)

	Rate name       Delta Moles Total Moles   Reactant        Coefficient

	Calcite           6.492e-11   8.770e-04   Calcite                   1

-----------------------------Solution composition------------------------------

	Elements           Molality       Moles

	C                 1.230e-04   1.230e-04
	Ca                1.230e-04   1.230e-04

----------------------------Description of solution----------------------------

                                       pH  =   9.907      Charge balance
                                       pe  =   8.790      Adjusted to redox equilibrium
      Specific Conductance (µS/cm,  25°C)  = 38
                          Density (g/cm³)  =   0.99706
                               Volume (L)  =   1.00296
                        Activity of water  =   1.000
                 Ionic strength (mol/kgw)  =   3.856e-04
                       Mass of water (kg)  =   1.000e+00
                 Total alkalinity (eq/kg)  =   2.460e-04
                       Total CO2 (mol/kg)  =   1.230e-04
                         Temperature (°C)  =  25.00
                  Electrical balance (eq)  =  -1.424e-09
 Percent error, 100*(Cat-|An|)/(Cat+|An|)  =  -0.00
                               Iterations  = 7448 (7440 overall)
                                  Total H  = 1.110124e+02
                                  Total O  = 5.550659e+01

----------------------------Distribution of species----------------------------

                                               Log       Log       Log    mole V
   Species          Molality    Activity  Molality  Activity     Gamma   cm³/mol

   OH-             8.353e-05   8.167e-05    -4.078    -4.088    -0.010     -4.12
   H+              1.267e-10   1.239e-10    -9.897    -9.907    -0.009      0.00
   H2O             5.551e+01   1.000e+00     1.744    -0.000     0.000     18.07
C(-4)         0.000e+00
   CH4             0.000e+00   0.000e+00  -132.831  -132.831     0.000     35.46
C(4)          1.230e-04
   HCO3-           8.352e-05   8.168e-05    -4.078    -4.088    -0.010     24.67
   CO3-2           3.379e-05   3.091e-05    -4.471    -4.510    -0.039     -5.32
   CaCO3           5.564e-06   5.565e-06    -5.255    -5.255     0.000    -14.60
   CaHCO3+         1.142e-07   1.117e-07    -6.942    -6.952    -0.010      9.66
   CO2             2.276e-08   2.276e-08    -7.643    -7.643     0.000     34.43
   (CO2)2          9.507e-18   9.508e-18   -17.022   -17.022     0.000     68.87
Ca            1.230e-04
   Ca+2            1.172e-04   1.072e-04    -3.931    -3.970    -0.039    -18.18
   CaCO3           5.564e-06   5.565e-06    -5.255    -5.255     0.000    -14.60
   CaOH+           1.468e-07   1.435e-07    -6.833    -6.843    -0.010     (0)  
   CaHCO3+         1.142e-07   1.117e-07    -6.942    -6.952    -0.010      9.66
H(0)          0.000e+00
   H2              0.000e+00   0.000e+00   -40.545   -40.545     0.000     28.61
O(0)          1.024e-11
   O2              5.118e-12   5.119e-12   -11.291   -11.291     0.000     30.40

------------------------------Saturation indices-------------------------------

  Phase               SI** log IAP   log K(298 K,   1 atm)

  Aragonite        -0.14     -8.48   -8.34  CaCO3
  Calcite          -0.00     -8.48   -8.48  CaCO3
  CH4(g)         -130.03   -132.83   -2.80  CH4
  CO2(g)           -6.17     -7.64   -1.47  CO2
  H2(g)           -37.44    -40.54   -3.10  H2
  H2O(g)           -1.50     -0.00    1.50  H2O
  O2(g)            -8.40    -11.29   -2.89  O2

**For a gas, SI = log10(fugacity). Fugacity = pressure * phi / 1 atm.
  For ideal gases, phi = 1.

Reaction step 12.

WARNING: Negative moles in solution 1 for C, -9.102435e-03. Recovering...
WARNING: Negative moles in solution 1 for C, -7.996718e-06. Recovering...
Using solution 1.	
Using kinetics 1.	

Kinetics 1.	

	Time step: 1.57788e+07 seconds  (Incremented time: 1.89346e+08 seconds)

	Rate name       Delta Moles Total Moles   Reactant        Coefficient

	Calcite           1.831e-10   8.770e-04   Calcite                   1

-----------------------------Solution composition------------------------------

	Elements           Molality       Moles

	C                 1.230e-04   1.230e-04
	Ca                1.230e-04   1.230e-04

----------------------------Description of solution----------------------------

                                       pH  =   9.907      Charge balance
                                       pe  =   8.791      Adjusted to redox equilibrium
      Specific Conductance (µS/cm,  25°C)  = 38
                          Density (g/cm³)  =   0.99706
                               Volume (L)  =   1.00296
                        Activity of water  =   1.000
                 Ionic strength (mol/kgw)  =   3.856e-04
                       Mass of water (kg)  =   1.000e+00
                 Total alkalinity (eq/kg)  =   2.460e-04
                       Total CO2 (mol/kg)  =   1.230e-04
                         Temperature (°C)  =  25.00
                  Electrical balance (eq)  =  -1.442e-09
 Percent error, 100*(Cat-|An|)/(Cat+|An|)  =  -0.00
                               Iterations  = 7430 (7420 overall)
                                  Total H  = 1.110124e+02
                                  Total O  = 5.550659e+01

----------------------------Distribution of species----------------------------

                                               Log       Log       Log    mole V
   Species          Molality    Activity  Molality  Activity     Gamma   cm³/mol

   OH-             8.353e-05   8.167e-05    -4.078    -4.088    -0.010     -4.12
   H+              1.267e-10   1.239e-10    -9.897    -9.907    -0.009      0.00
   H2O             5.551e+01   1.000e+00     1.744    -0.000     0.000     18.07
C(-4)         0.000e+00
   CH4             0.000e+00   0.000e+00  -132.835  -132.835     0.000     35.46
C(4)          1.230e-04
   HCO3-           8.352e-05   8.168e-05    -4.078    -4.088    -0.010     24.67
   CO3-2           3.379e-05   3.091e-05    -4.471    -4.510    -0.039     -5.32
   CaCO3           5.564e-06   5.565e-06    -5.255    -5.255     0.000    -14.60
   CaHCO3+         1.142e-07   1.117e-07    -6.942    -6.952    -0.010      9.66
   CO2             2.276e-08   2.276e-08    -7.643    -7.643     0.000     34.43
   (CO2)2          9.507e-18   9.508e-18   -17.022   -17.022     0.000     68.87
Ca            1.230e-04
   Ca+2            1.172e-04   1.072e-04    -3.931    -3.970    -0.039    -18.18
   CaCO3           5.564e-06   5.565e-06    -5.255    -5.255     0.000    -14.60
   CaOH+           1.468e-07   1.435e-07    -6.833    -6.843    -0.010     (0)  
   CaHCO3+         1.142e-07   1.117e-07    -6.942    -6.952    -0.010      9.66
H(0)          0.000e+00
   H2              0.000e+00   0.000e+00   -40.546   -40.546     0.000     28.61
O(0)          1.028e-11
   O2              5.141e-12   5.141e-12   -11.289   -11.289     0.000     30.40

------------------------------Saturation indices-------------------------------

  Phase               SI** log IAP   log K(298 K,   1 atm)

  Aragonite        -0.14     -8.48   -8.34  CaCO3
  Calcite          -0.00     -8.48   -8.48  CaCO3
  CH4(g)         -130.03   -132.83   -2.80  CH4
  CO2(g)           -6.17     -7.64   -1.47  CO2
  H2(g)           -37.44    -40.55   -3.10  H2
  H2O(g)           -1.50     -0.00    1.50  H2O
  O2(g)            -8.40    -11.29   -2.89  O2

**For a gas, SI = log10(fugacity). Fugacity = pressure * phi / 1 atm.
  For ideal gases, phi = 1.

Reaction step 13.

WARNING: Negative moles in solution 1 for C, -5.674712e-03. Recovering...
Using solution 1.	
Using kinetics 1.	

Kinetics 1.	

	Time step: 1.57788e+07 seconds  (Incremented time: 2.05124e+08 seconds)

	Rate name       Delta Moles Total Moles   Reactant        Coefficient

	Calcite           2.139e-10   8.770e-04   Calcite                   1

-----------------------------Solution composition------------------------------

	Elements           Molality       Moles

	C                 1.230e-04   1.230e-04
	Ca                1.230e-04   1.230e-04

----------------------------Description of solution----------------------------

                                       pH  =   9.907      Charge balance
                                       pe  =   8.792      Adjusted to redox equilibrium
      Specific Conductance (µS/cm,  25°C)  = 38
                          Density (g/cm³)  =   0.99706
                               Volume (L)  =   1.00296
                        Activity of water  =   1.000
                 Ionic strength (mol/kgw)  =   3.856e-04
                       Mass of water (kg)  =   1.000e+00
                 Total alkalinity (eq/kg)  =   2.460e-04
                       Total CO2 (mol/kg)  =   1.230e-04
                         Temperature (°C)  =  25.00
                  Electrical balance (eq)  =  -1.461e-09
 Percent error, 100*(Cat-|An|)/(Cat+|An|)  =  -0.00
                               Iterations  = 7449 (7441 overall)
                                  Total H  = 1.110124e+02
                                  Total O  = 5.550659e+01

----------------------------Distribution of species----------------------------

                                               Log       Log       Log    mole V
   Species          Molality    Activity  Molality  Activity     Gamma   cm³/mol

   OH-             8.353e-05   8.167e-05    -4.078    -4.088    -0.010     -4.12
   H+              1.267e-10   1.239e-10    -9.897    -9.907    -0.009      0.00
   H2O             5.551e+01   1.000e+00     1.744    -0.000     0.000     18.07
C(-4)         0.000e+00
   CH4             0.000e+00   0.000e+00  -132.844  -132.844     0.000     35.46
C(4)          1.230e-04
   HCO3-           8.352e-05   8.168e-05    -4.078    -4.088    -0.010     24.67
   CO3-2           3.379e-05   3.091e-05    -4.471    -4.510    -0.039     -5.32
   CaCO3           5.564e-06   5.565e-06    -5.255    -5.255     0.000    -14.60
   CaHCO3+         1.142e-07   1.117e-07    -6.942    -6.952    -0.010      9.66
   CO2             2.276e-08   2.276e-08    -7.643    -7.643     0.000     34.43
   (CO2)2          9.507e-18   9.508e-18   -17.022   -17.022     0.000     68.87
Ca            1.230e-04
   Ca+2            1.172e-04   1.072e-04    -3.931    -3.970    -0.039    -18.18
   CaCO3           5.564e-06   5.565e-06    -5.255    -5.255     0.000    -14.60
   CaOH+           1.468e-07   1.435e-07    -6.833    -6.843    -0.010     (0)  
   CaHCO3+         1.142e-07   1.117e-07    -6.942    -6.952    -0.010      9.66
H(0)          0.000e+00
   H2              0.000e+00   0.000e+00   -40.548   -40.548     0.000     28.61
O(0)          1.040e-11
   O2              5.199e-12   5.199e-12   -11.284   -11.284     0.000     30.40

------------------------------Saturation indices-------------------------------

  Phase               SI** log IAP   log K(298 K,   1 atm)

  Aragonite        -0.14     -8.48   -8.34  CaCO3
  Calcite          -0.00     -8.48   -8.48  CaCO3
  CH4(g)         -130.04   -132.84   -2.80  CH4
  CO2(g)           -6.17     -7.64   -1.47  CO2
  H2(g)           -37.45    -40.55   -3.10  H2
  H2O(g)           -1.50     -0.00    1.50  H2O
  O2(g)            -8.39    -11.28   -2.89  O2

**For a gas, SI = log10(fugacity). Fugacity = pressure * phi / 1 atm.
  For ideal gases, phi = 1.

Reaction step 14.

WARNING: Negative moles in solution 1 for C, -1.176056e-05. Recovering...
WARNING: Negative moles in solution 1 for C, -5.464874e-02. Recovering...
Using solution 1.	
Using kinetics 1.	

Kinetics 1.	

	Time step: 1.57788e+07 seconds  (Incremented time: 2.20903e+08 seconds)

	Rate name       Delta Moles Total Moles   Reactant        Coefficient

	Calcite           7.332e-10   8.770e-04   Calcite                   1

-----------------------------Solution composition------------------------------

	Elements           Molality       Moles

	C                 1.230e-04   1.230e-04
	Ca                1.230e-04   1.230e-04

----------------------------Description of solution----------------------------

                                       pH  =   9.907      Charge balance
                                       pe  =   8.794      Adjusted to redox equilibrium
      Specific Conductance (µS/cm,  25°C)  = 38
                          Density (g/cm³)  =   0.99706
                               Volume (L)  =   1.00296
                        Activity of water  =   1.000
                 Ionic strength (mol/kgw)  =   3.856e-04
                       Mass of water (kg)  =   1.000e+00
                 Total alkalinity (eq/kg)  =   2.460e-04
                       Total CO2 (mol/kg)  =   1.230e-04
                         Temperature (°C)  =  25.00
                  Electrical balance (eq)  =  -1.479e-09
 Percent error, 100*(Cat-|An|)/(Cat+|An|)  =  -0.00
                               Iterations  = 7413 (7405 overall)
                                  Total H  = 1.110124e+02
                                  Total O  = 5.550659e+01

----------------------------Distribution of species----------------------------

                                               Log       Log       Log    mole V
   Species          Molality    Activity  Molality  Activity     Gamma   cm³/mol

   OH-             8.353e-05   8.167e-05    -4.078    -4.088    -0.010     -4.12
   H+              1.267e-10   1.239e-10    -9.897    -9.907    -0.009      0.00
   H2O             5.551e+01   1.000e+00     1.744    -0.000     0.000     18.07
C(-4)         0.000e+00
   CH4             0.000e+00   0.000e+00  -132.856  -132.856     0.000     35.46
C(4)          1.230e-04
   HCO3-           8.352e-05   8.168e-05    -4.078    -4.088    -0.010     24.67
   CO3-2           3.379e-05   3.091e-05    -4.471    -4.510    -0.039     -5.32
   CaCO3           5.564e-06   5.565e-06    -5.255    -5.255     0.000    -14.60
   CaHCO3+         1.142e-07   1.117e-07    -6.942    -6.952    -0.010      9.66
   CO2             2.276e-08   2.276e-08    -7.643    -7.643     0.000     34.43
   (CO2)2          9.507e-18   9.508e-18   -17.022   -17.022     0.000     68.87
Ca            1.230e-04
   Ca+2            1.172e-04   1.072e-04    -3.931    -3.970    -0.039    -18.18
   CaCO3           5.564e-06   5.565e-06    -5.255    -5.255     0.000    -14.60
   CaOH+           1.468e-07   1.435e-07    -6.833    -6.843    -0.010     (0)  
   CaHCO3+         1.142e-07   1.117e-07    -6.942    -6.952    -0.010      9.66
H(0)          0.000e+00
   H2              0.000e+00   0.000e+00   -40.551   -40.551     0.000     28.61
O(0)          1.054e-11
   O2              5.271e-12   5.272e-12   -11.278   -11.278     0.000     30.40

------------------------------Saturation indices-------------------------------

  Phase               SI** log IAP   log K(298 K,   1 atm)

  Aragonite        -0.14     -8.48   -8.34  CaCO3
  Calcite          -0.00     -8.48   -8.48  CaCO3
  CH4(g)         -130.05   -132.86   -2.80  CH4
  CO2(g)           -6.17     -7.64   -1.47  CO2
  H2(g)           -37.45    -40.55   -3.10  H2
  H2O(g)           -1.50     -0.00    1.50  H2O
  O2(g)            -8.39    -11.28   -2.89  O2

**For a gas, SI = log10(fugacity). Fugacity = pressure * phi / 1 atm.
  For ideal gases, phi = 1.

Reaction step 15.

WARNING: Negative moles in solution 1 for C, -3.472338e-04. Recovering...
WARNING: Negative moles in solution 1 for C, -6.406887e-02. Recovering...
Using solution 1.	
Using kinetics 1.	

Kinetics 1.	

	Time step: 1.57788e+07 seconds  (Incremented time: 2.36682e+08 seconds)

	Rate name       Delta Moles Total Moles   Reactant        Coefficient

	Calcite          -5.435e-10   8.770e-04   Calcite                   1

-----------------------------Solution composition------------------------------

	Elements           Molality       Moles

	C                 1.230e-04   1.230e-04
	Ca                1.230e-04   1.230e-04

----------------------------Description of solution----------------------------

                                       pH  =   9.907      Charge balance
                                       pe  =   8.795      Adjusted to redox equilibrium
      Specific Conductance (µS/cm,  25°C)  = 38
                          Density (g/cm³)  =   0.99706
                               Volume (L)  =   1.00296
                        Activity of water  =   1.000
                 Ionic strength (mol/kgw)  =   3.856e-04
                       Mass of water (kg)  =   1.000e+00
                 Total alkalinity (eq/kg)  =   2.460e-04
                       Total CO2 (mol/kg)  =   1.230e-04
                         Temperature (°C)  =  25.00
                  Electrical balance (eq)  =  -1.501e-09
 Percent error, 100*(Cat-|An|)/(Cat+|An|)  =  -0.00
                               Iterations  = 7103 (7093 overall)
                                  Total H  = 1.110124e+02
                                  Total O  = 5.550659e+01

----------------------------Distribution of species----------------------------

                                               Log       Log       Log    mole V
   Species          Molality    Activity  Molality  Activity     Gamma   cm³/mol

   OH-             8.353e-05   8.167e-05    -4.078    -4.088    -0.010     -4.12
   H+              1.267e-10   1.239e-10    -9.897    -9.907    -0.009      0.00
   H2O             5.551e+01   1.000e+00     1.744    -0.000     0.000     18.07
C(-4)         0.000e+00
   CH4             0.000e+00   0.000e+00  -132.868  -132.868     0.000     35.46
C(4)          1.230e-04
   HCO3-           8.352e-05   8.168e-05    -4.078    -4.088    -0.010     24.67
   CO3-2           3.379e-05   3.091e-05    -4.471    -4.510    -0.039     -5.32
   CaCO3           5.564e-06   5.565e-06    -5.255    -5.255     0.000    -14.60
   CaHCO3+         1.142e-07   1.117e-07    -6.942    -6.952    -0.010      9.66
   CO2             2.276e-08   2.276e-08    -7.643    -7.643     0.000     34.43
   (CO2)2          9.507e-18   9.508e-18   -17.022   -17.022     0.000     68.87
Ca            1.230e-04
   Ca+2            1.172e-04   1.072e-04    -3.931    -3.970    -0.039    -18.18
   CaCO3           5.564e-06   5.565e-06    -5.255    -5.255     0.000    -14.60
   CaOH+           1.468e-07   1.435e-07    -6.833    -6.843    -0.010     (0)  
   CaHCO3+         1.142e-07   1.117e-07    -6.942    -6.952    -0.010      9.66
H(0)          0.000e+00
   H2              0.000e+00   0.000e+00   -40.554   -40.554     0.000     28.61
O(0)          1.068e-11
   O2              5.339e-12   5.340e-12   -11.273   -11.272     0.000     30.40

------------------------------Saturation indices-------------------------------

  Phase               SI** log IAP   log K(298 K,   1 atm)

  Aragonite        -0.14     -8.48   -8.34  CaCO3
  Calcite          -0.00     -8.48   -8.48  CaCO3
  CH4(g)         -130.07   -132.87   -2.80  CH4
  CO2(g)           -6.17     -7.64   -1.47  CO2
  H2(g)           -37.45    -40.55   -3.10  H2
  H2O(g)           -1.50     -0.00    1.50  H2O
  O2(g)            -8.38    -11.27   -2.89  O2

**For a gas, SI = log10(fugacity). Fugacity = pressure * phi / 1 atm.
  For ideal gases, phi = 1.

Reaction step 16.

WARNING: Negative moles in solution 1 for C, -4.983460e-03. Recovering...
Using solution 1.	
Using kinetics 1.	

Kinetics 1.	

	Time step: 1.57788e+07 seconds  (Incremented time: 2.52461e+08 seconds)

	Rate name       Delta Moles Total Moles   Reactant        Coefficient

	Calcite           1.461e-10   8.770e-04   Calcite                   1

-----------------------------Solution composition------------------------------

	Elements           Molality       Moles

	C                 1.230e-04   1.230e-04
	Ca                1.230e-04   1.230e-04

----------------------------Description of solution----------------------------

                                       pH  =   9.907      Charge balance
                                       pe  =   8.795      Adjusted to redox equilibrium
      Specific Conductance (µS/cm,  25°C)  = 38
                          Density (g/cm³)  =   0.99706
                               Volume (L)  =   1.00296
                        Activity of water  =   1.000
                 Ionic strength (mol/kgw)  =   3.856e-04
                       Mass of water (kg)  =   1.000e+00
                 Total alkalinity (eq/kg)  =   2.460e-04
                       Total CO2 (mol/kg)  =   1.230e-04
                         Temperature (°C)  =  25.00
                  Electrical balance (eq)  =  -1.520e-09
 Percent error, 100*(Cat-|An|)/(Cat+|An|)  =  -0.00
                               Iterations  = 7446 (7438 overall)
                                  Total H  = 1.110124e+02
                                  Total O  = 5.550659e+01

----------------------------Distribution of species----------------------------

                                               Log       Log       Log    mole V
   Species          Molality    Activity  Molality  Activity     Gamma   cm³/mol

   OH-             8.353e-05   8.167e-05    -4.078    -4.088    -0.010     -4.12
   H+              1.267e-10   1.239e-10    -9.897    -9.907    -0.009      0.00
   H2O             5.551e+01   1.000e+00     1.744    -0.000     0.000     18.07
C(-4)         0.000e+00
   CH4             0.000e+00   0.000e+00  -132.871  -132.871     0.000     35.46
C(4)          1.230e-04
   HCO3-           8.352e-05   8.168e-05    -4.078    -4.088    -0.010     24.67
   CO3-2           3.379e-05   3.091e-05    -4.471    -4.510    -0.039     -5.32
   CaCO3           5.564e-06   5.565e-06    -5.255    -5.255     0.000    -14.60
   CaHCO3+         1.142e-07   1.117e-07    -6.942    -6.952    -0.010      9.66
   CO2             2.276e-08   2.276e-08    -7.643    -7.643     0.000     34.43
   (CO2)2          9.507e-18   9.508e-18   -17.022   -17.022     0.000     68.87
Ca            1.230e-04
   Ca+2            1.172e-04   1.072e-04    -3.931    -3.970    -0.039    -18.18
   CaCO3           5.564e-06   5.565e-06    -5.255    -5.255     0.000    -14.60
   CaOH+           1.468e-07   1.435e-07    -6.833    -6.843    -0.010     (0)  
   CaHCO3+         1.142e-07   1.117e-07    -6.942    -6.952    -0.010      9.66
H(0)          0.000e+00
   H2              0.000e+00   0.000e+00   -40.555   -40.555     0.000     28.61
O(0)          1.072e-11
   O2              5.360e-12   5.360e-12   -11.271   -11.271     0.000     30.40

------------------------------Saturation indices-------------------------------

  Phase               SI** log IAP   log K(298 K,   1 atm)

  Aragonite        -0.14     -8.48   -8.34  CaCO3
  Calcite          -0.00     -8.48   -8.48  CaCO3
  CH4(g)         -130.07   -132.87   -2.80  CH4
  CO2(g)           -6.17     -7.64   -1.47  CO2
  H2(g)           -37.45    -40.55   -3.10  H2
  H2O(g)           -1.50     -0.00    1.50  H2O
  O2(g)            -8.38    -11.27   -2.89  O2

**For a gas, SI = log10(fugacity). Fugacity = pressure * phi / 1 atm.
  For ideal gases, phi = 1.

Reaction step 17.

WARNING: Negative moles in solution 1 for C, -1.479393e-06. Recovering...
WARNING: Negative moles in solution 1 for C, -5.123595e-02. Recovering...
Using solution 1.	
Using kinetics 1.	

Kinetics 1.	

	Time step: 1.57788e+07 seconds  (Incremented time: 2.6824e+08 seconds)

	Rate name       Delta Moles Total Moles   Reactant        Coefficient

	Calcite           2.429e-10   8.770e-04   Calcite                   1

-----------------------------Solution composition------------------------------

	Elements           Molality       Moles

	C                 1.230e-04   1.230e-04
	Ca                1.230e-04   1.230e-04

----------------------------Description of solution----------------------------

                                       pH  =   9.907      Charge balance
                                       pe  =   8.793      Adjusted to redox equilibrium
      Specific Conductance (µS/cm,  25°C)  = 38
                          Density (g/cm³)  =   0.99706
                               Volume (L)  =   1.00296
                        Activity of water  =   1.000
                 Ionic strength (mol/kgw)  =   3.856e-04
                       Mass of water (kg)  =   1.000e+00
                 Total alkalinity (eq/kg)  =   2.460e-04
                       Total CO2 (mol/kg)  =   1.230e-04
                         Temperature (°C)  =  25.00
                  Electrical balance (eq)  =  -1.538e-09
 Percent error, 100*(Cat-|An|)/(Cat+|An|)  =  -0.00
                               Iterations  = 7418 (7410 overall)
                                  Total H  = 1.110124e+02
                                  Total O  = 5.550659e+01

----------------------------Distribution of species----------------------------

                                               Log       Log       Log    mole V
   Species          Molality    Activity  Molality  Activity     Gamma   cm³/mol

   OH-             8.353e-05   8.167e-05    -4.078    -4.088    -0.010     -4.12
   H+              1.267e-10   1.239e-10    -9.897    -9.907    -0.009      0.00
   H2O             5.551e+01   1.000e+00     1.744    -0.000     0.000     18.07
C(-4)         0.000e+00
   CH4             0.000e+00   0.000e+00  -132.849  -132.849     0.000     35.46
C(4)          1.230e-04
   HCO3-           8.352e-05   8.168e-05    -4.078    -4.088    -0.010     24.67
   CO3-2           3.379e-05   3.091e-05    -4.471    -4.510    -0.039     -5.32
   CaCO3           5.564e-06   5.565e-06    -5.255    -5.255     0.000    -14.60
   CaHCO3+         1.142e-07   1.117e-07    -6.942    -6.952    -0.010      9.66
   CO2             2.276e-08   2.276e-08    -7.643    -7.643     0.000     34.43
   (CO2)2          9.507e-18   9.508e-18   -17.022   -17.022     0.000     68.87
Ca            1.230e-04
   Ca+2            1.172e-04   1.072e-04    -3.931    -3.970    -0.039    -18.18
   CaCO3           5.564e-06   5.565e-06    -5.255    -5.255     0.000    -14.60
   CaOH+           1.468e-07   1.435e-07    -6.833    -6.843    -0.010     (0)  
   CaHCO3+         1.142e-07   1.117e-07    -6.942    -6.952    -0.010      9.66
H(0)          0.000e+00
   H2              0.000e+00   0.000e+00   -40.549   -40.549     0.000     28.61
O(0)          1.046e-11
   O2              5.228e-12   5.228e-12   -11.282   -11.282     0.000     30.40

------------------------------Saturation indices-------------------------------

  Phase               SI** log IAP   log K(298 K,   1 atm)

  Aragonite        -0.14     -8.48   -8.34  CaCO3
  Calcite          -0.00     -8.48   -8.48  CaCO3
  CH4(g)         -130.05   -132.85   -2.80  CH4
  CO2(g)           -6.17     -7.64   -1.47  CO2
  H2(g)           -37.45    -40.55   -3.10  H2
  H2O(g)           -1.50     -0.00    1.50  H2O
  O2(g)            -8.39    -11.28   -2.89  O2

**For a gas, SI = log10(fugacity). Fugacity = pressure * phi / 1 atm.
  For ideal gases, phi = 1.

Reaction step 18.

WARNING: Negative moles in solution 1 for C, -7.248786e-05. Recovering...
WARNING: Negative moles in solution 1 for C, -7.126245e-02. Recovering...
Using solution 1.	
Using kinetics 1.	

Kinetics 1.	

	Time step: 1.57788e+07 seconds  (Incremented time: 2.84018e+08 seconds)

	Rate name       Delta Moles Total Moles   Reactant        Coefficient

	Calcite           9.824e-10   8.770e-04   Calcite                   1

-----------------------------Solution composition------------------------------

	Elements           Molality       Moles

	C                 1.230e-04   1.230e-04
	Ca                1.230e-04   1.230e-04

----------------------------Description of solution----------------------------

                                       pH  =   9.907      Charge balance
                                       pe  =   8.793      Adjusted to redox equilibrium
      Specific Conductance (µS/cm,  25°C)  = 38
                          Density (g/cm³)  =   0.99706
                               Volume (L)  =   1.00296
                        Activity of water  =   1.000
                 Ionic strength (mol/kgw)  =   3.856e-04
                       Mass of water (kg)  =   1.000e+00
                 Total alkalinity (eq/kg)  =   2.460e-04
                       Total CO2 (mol/kg)  =   1.230e-04
                         Temperature (°C)  =  25.00
                  Electrical balance (eq)  =  -1.557e-09
 Percent error, 100*(Cat-|An|)/(Cat+|An|)  =  -0.00
                               Iterations  = 7415 (7406 overall)
                                  Total H  = 1.110124e+02
                                  Total O  = 5.550659e+01

----------------------------Distribution of species----------------------------

                                               Log       Log       Log    mole V
   Species          Molality    Activity  Molality  Activity     Gamma   cm³/mol

   OH-             8.353e-05   8.167e-05    -4.078    -4.088    -0.010     -4.12
   H+              1.267e-10   1.239e-10    -9.897    -9.907    -0.009      0.00
   H2O             5.551e+01   1.000e+00     1.744    -0.000     0.000     18.07
C(-4)         0.000e+00
   CH4             0.000e+00   0.000e+00  -132.849  -132.849     0.000     35.46
C(4)          1.230e-04
   HCO3-           8.352e-05   8.168e-05    -4.078    -4.088    -0.010     24.67
   CO3-2           3.379e-05   3.091e-05    -4.471    -4.510    -0.039     -5.32
   CaCO3           5.564e-06   5.565e-06    -5.255    -5.255     0.000    -14.60
   CaHCO3+         1.142e-07   1.117e-07    -6.942    -6.952    -0.010      9.66
   CO2             2.276e-08   2.276e-08    -7.643    -7.643     0.000     34.43
   (CO2)2          9.507e-18   9.508e-18   -17.022   -17.022     0.000     68.87
Ca            1.230e-04
   Ca+2            1.172e-04   1.072e-04    -3.931    -3.970    -0.039    -18.18
   CaCO3           5.564e-06   5.565e-06    -5.255    -5.255     0.000    -14.60
   CaOH+           1.468e-07   1.435e-07    -6.833    -6.843    -0.010     (0)  
   CaHCO3+         1.142e-07   1.117e-07    -6.942    -6.952    -0.010      9.66
H(0)          0.000e+00
   H2              0.000e+00   0.000e+00   -40.549   -40.549     0.000     28.61
O(0)          1.046e-11
   O2              5.228e-12   5.229e-12   -11.282   -11.282     0.000     30.40

------------------------------Saturation indices-------------------------------

  Phase               SI** log IAP   log K(298 K,   1 atm)

  Aragonite        -0.14     -8.48   -8.34  CaCO3
  Calcite          -0.00     -8.48   -8.48  CaCO3
  CH4(g)         -130.05   -132.85   -2.80  CH4
  CO2(g)           -6.17     -7.64   -1.47  CO2
  H2(g)           -37.45    -40.55   -3.10  H2
  H2O(g)           -1.50     -0.00    1.50  H2O
  O2(g)            -8.39    -11.28   -2.89  O2

**For a gas, SI = log10(fugacity). Fugacity = pressure * phi / 1 atm.
  For ideal gases, phi = 1.

Reaction step 19.

WARNING: Negative moles in solution 1 for C, -5.406920e-04. Recovering...
WARNING: Negative moles in solution 1 for C, -1.902074e-03. Recovering...
Using solution 1.	
Using kinetics 1.	

Kinetics 1.	

	Time step: 1.57788e+07 seconds  (Incremented time: 2.99797e+08 seconds)

	Rate name       Delta Moles Total Moles   Reactant        Coefficient

	Calcite          -7.523e-10   8.770e-04   Calcite                   1

-----------------------------Solution composition------------------------------

	Elements           Molality       Moles

	C                 1.230e-04   1.230e-04
	Ca                1.230e-04   1.230e-04

----------------------------Description of solution----------------------------

                                       pH  =   9.907      Charge balance
                                       pe  =   8.792      Adjusted to redox equilibrium
      Specific Conductance (µS/cm,  25°C)  = 38
                          Density (g/cm³)  =   0.99706
                               Volume (L)  =   1.00296
                        Activity of water  =   1.000
                 Ionic strength (mol/kgw)  =   3.856e-04
                       Mass of water (kg)  =   1.000e+00
                 Total alkalinity (eq/kg)  =   2.460e-04
                       Total CO2 (mol/kg)  =   1.230e-04
                         Temperature (°C)  =  25.00
                  Electrical balance (eq)  =  -1.576e-09
 Percent error, 100*(Cat-|An|)/(Cat+|An|)  =  -0.00
                               Iterations  = 7422 (7412 overall)
                                  Total H  = 1.110124e+02
                                  Total O  = 5.550659e+01

----------------------------Distribution of species----------------------------

                                               Log       Log       Log    mole V
   Species          Molality    Activity  Molality  Activity     Gamma   cm³/mol

   OH-             8.353e-05   8.167e-05    -4.078    -4.088    -0.010     -4.12
   H+              1.267e-10   1.239e-10    -9.897    -9.907    -0.009      0.00
   H2O             5.551e+01   1.000e+00     1.744    -0.000     0.000     18.07
C(-4)         0.000e+00
   CH4             0.000e+00   0.000e+00  -132.843  -132.843     0.000     35.46
C(4)          1.230e-04
   HCO3-           8.352e-05   8.168e-05    -4.078    -4.088    -0.010     24.67
   CO3-2           3.379e-05   3.091e-05    -4.471    -4.510    -0.039     -5.32
   CaCO3           5.564e-06   5.565e-06    -5.255    -5.255     0.000    -14.60
   CaHCO3+         1.142e-07   1.117e-07    -6.942    -6.952    -0.010      9.66
   CO2             2.276e-08   2.276e-08    -7.643    -7.643     0.000     34.43
   (CO2)2          9.507e-18   9.508e-18   -17.022   -17.022     0.000     68.87
Ca            1.230e-04
   Ca+2            1.172e-04   1.072e-04    -3.931    -3.970    -0.039    -18.18
   CaCO3           5.564e-06   5.565e-06    -5.255    -5.255     0.000    -14.60
   CaOH+           1.468e-07   1.435e-07    -6.833    -6.843    -0.010     (0)  
   CaHCO3+         1.142e-07   1.117e-07    -6.942    -6.952    -0.010      9.66
H(0)          0.000e+00
   H2              0.000e+00   0.000e+00   -40.548   -40.548     0.000     28.61
O(0)          1.038e-11
   O2              5.188e-12   5.189e-12   -11.285   -11.285     0.000     30.40

------------------------------Saturation indices-------------------------------

  Phase               SI** log IAP   log K(298 K,   1 atm)

  Aragonite        -0.14     -8.48   -8.34  CaCO3
  Calcite          -0.00     -8.48   -8.48  CaCO3
  CH4(g)         -130.04   -132.84   -2.80  CH4
  CO2(g)           -6.17     -7.64   -1.47  CO2
  H2(g)           -37.45    -40.55   -3.10  H2
  H2O(g)           -1.50     -0.00    1.50  H2O
  O2(g)            -8.39    -11.28   -2.89  O2

**For a gas, SI = log10(fugacity). Fugacity = pressure * phi / 1 atm.
  For ideal gases, phi = 1.

Reaction step 20.

WARNING: Negative moles in solution 1 for C, -7.294475e-05. Recovering...
WARNING: Negative moles in solution 1 for C, -7.136361e-02. Recovering...
Using solution 1.	
Using kinetics 1.	

Kinetics 1.	

	Time step: 1.57788e+07 seconds  (Incremented time: 3.15576e+08 seconds)

	Rate name       Delta Moles Total Moles   Reactant        Coefficient

	Calcite           1.754e-09   8.770e-04   Calcite                   1

-----------------------------Solution composition------------------------------

	Elements           Molality       Moles

	C                 1.230e-04   1.230e-04
	Ca                1.230e-04   1.230e-04

----------------------------Description of solution----------------------------

                                       pH  =   9.907      Charge balance
                                       pe  =   8.791      Adjusted to redox equilibrium
      Specific Conductance (µS/cm,  25°C)  = 38
                          Density (g/cm³)  =   0.99706
                               Volume (L)  =   1.00296
                        Activity of water  =   1.000
                 Ionic strength (mol/kgw)  =   3.856e-04
                       Mass of water (kg)  =   1.000e+00
                 Total alkalinity (eq/kg)  =   2.460e-04
                       Total CO2 (mol/kg)  =   1.230e-04
                         Temperature (°C)  =  25.00
                  Electrical balance (eq)  =  -1.595e-09
 Percent error, 100*(Cat-|An|)/(Cat+|An|)  =  -0.00
                               Iterations  = 7402 (7393 overall)
                                  Total H  = 1.110124e+02
                                  Total O  = 5.550659e+01

----------------------------Distribution of species----------------------------

                                               Log       Log       Log    mole V
[...]
   CaHCO3+         1.142e-07   1.117e-07    -6.942    -6.952    -0.010      9.66
H(0)          0.000e+00
   H2              0.000e+00   0.000e+00   -40.582   -40.582     0.000     28.61
O(0)          1.213e-11
   O2              6.067e-12   6.067e-12   -11.217   -11.217     0.000     30.40

------------------------------Saturation indices-------------------------------

  Phase               SI** log IAP   log K(298 K,   1 atm)

  Aragonite        -0.14     -8.48   -8.34  CaCO3
  Calcite          -0.00     -8.48   -8.48  CaCO3
  CH4(g)         -130.18   -132.98   -2.80  CH4
  CO2(g)           -6.17     -7.64   -1.47  CO2
  H2(g)           -37.48    -40.58   -3.10  H2
  H2O(g)           -1.50     -0.00    1.50  H2O
  O2(g)            -8.32    -11.22   -2.89  O2

**For a gas, SI = log10(fugacity). Fugacity = pressure * phi / 1 atm.
  For ideal gases, phi = 1.

Reaction step 96.

Using solution 1.	
Using kinetics 1.	

Kinetics 1.	

	Time step: 1.57788e+07 seconds  (Incremented time: 1.51476e+09 seconds)

	Rate name       Delta Moles Total Moles   Reactant        Coefficient

	Calcite          -4.459e-10   8.770e-04   Calcite                   1

-----------------------------Solution composition------------------------------

	Elements           Molality       Moles

	C                 1.230e-04   1.230e-04
	Ca                1.230e-04   1.230e-04

----------------------------Description of solution----------------------------

                                       pH  =   9.907      Charge balance
                                       pe  =   8.808      Adjusted to redox equilibrium
      Specific Conductance (µS/cm,  25°C)  = 38
                          Density (g/cm³)  =   0.99706
                               Volume (L)  =   1.00296
                        Activity of water  =   1.000
                 Ionic strength (mol/kgw)  =   3.856e-04
                       Mass of water (kg)  =   1.000e+00
                 Total alkalinity (eq/kg)  =   2.460e-04
                       Total CO2 (mol/kg)  =   1.230e-04
                         Temperature (°C)  =  25.00
                  Electrical balance (eq)  =  -3.024e-09
 Percent error, 100*(Cat-|An|)/(Cat+|An|)  =  -0.00
                               Iterations  = 7439 (7428 overall)
                                  Total H  = 1.110124e+02
                                  Total O  = 5.550659e+01

----------------------------Distribution of species----------------------------

                                               Log       Log       Log    mole V
   Species          Molality    Activity  Molality  Activity     Gamma   cm³/mol

   OH-             8.353e-05   8.167e-05    -4.078    -4.088    -0.010     -4.12
   H+              1.267e-10   1.239e-10    -9.897    -9.907    -0.009      0.00
   H2O             5.551e+01   1.000e+00     1.744    -0.000     0.000     18.07
C(-4)         0.000e+00
   CH4             0.000e+00   0.000e+00  -132.970  -132.970     0.000     35.46
C(4)          1.230e-04
   HCO3-           8.352e-05   8.168e-05    -4.078    -4.088    -0.010     24.67
   CO3-2           3.379e-05   3.091e-05    -4.471    -4.510    -0.039     -5.32
   CaCO3           5.564e-06   5.565e-06    -5.255    -5.255     0.000    -14.60
   CaHCO3+         1.142e-07   1.117e-07    -6.942    -6.952    -0.010      9.66
   CO2             2.276e-08   2.276e-08    -7.643    -7.643     0.000     34.43
   (CO2)2          9.507e-18   9.508e-18   -17.022   -17.022     0.000     68.87
Ca            1.230e-04
   Ca+2            1.172e-04   1.072e-04    -3.931    -3.970    -0.039    -18.18
   CaCO3           5.564e-06   5.565e-06    -5.255    -5.255     0.000    -14.60
   CaOH+           1.468e-07   1.435e-07    -6.833    -6.843    -0.010     (0)  
   CaHCO3+         1.142e-07   1.117e-07    -6.942    -6.952    -0.010      9.66
H(0)          0.000e+00
   H2              0.000e+00   0.000e+00   -40.579   -40.579     0.000     28.61
O(0)          1.201e-11
   O2              6.004e-12   6.005e-12   -11.222   -11.222     0.000     30.40

------------------------------Saturation indices-------------------------------

  Phase               SI** log IAP   log K(298 K,   1 atm)

  Aragonite        -0.14     -8.48   -8.34  CaCO3
  Calcite          -0.00     -8.48   -8.48  CaCO3
  CH4(g)         -130.17   -132.97   -2.80  CH4
  CO2(g)           -6.17     -7.64   -1.47  CO2
  H2(g)           -37.48    -40.58   -3.10  H2
  H2O(g)           -1.50     -0.00    1.50  H2O
  O2(g)            -8.33    -11.22   -2.89  O2

**For a gas, SI = log10(fugacity). Fugacity = pressure * phi / 1 atm.
  For ideal gases, phi = 1.

Reaction step 97.

Using solution 1.	
Using kinetics 1.	

Kinetics 1.	

	Time step: 1.57788e+07 seconds  (Incremented time: 1.53054e+09 seconds)

	Rate name       Delta Moles Total Moles   Reactant        Coefficient

	Calcite           2.204e-10   8.770e-04   Calcite                   1

-----------------------------Solution composition------------------------------

	Elements           Molality       Moles

	C                 1.230e-04   1.230e-04
	Ca                1.230e-04   1.230e-04

----------------------------Description of solution----------------------------

                                       pH  =   9.907      Charge balance
                                       pe  =   8.809      Adjusted to redox equilibrium
      Specific Conductance (µS/cm,  25°C)  = 38
                          Density (g/cm³)  =   0.99706
                               Volume (L)  =   1.00296
                        Activity of water  =   1.000
                 Ionic strength (mol/kgw)  =   3.856e-04
                       Mass of water (kg)  =   1.000e+00
                 Total alkalinity (eq/kg)  =   2.460e-04
                       Total CO2 (mol/kg)  =   1.230e-04
                         Temperature (°C)  =  25.00
                  Electrical balance (eq)  =  -3.042e-09
 Percent error, 100*(Cat-|An|)/(Cat+|An|)  =  -0.00
                               Iterations  = 7419 (7411 overall)
                                  Total H  = 1.110124e+02
                                  Total O  = 5.550659e+01

----------------------------Distribution of species----------------------------

                                               Log       Log       Log    mole V
   Species          Molality    Activity  Molality  Activity     Gamma   cm³/mol

   OH-             8.353e-05   8.167e-05    -4.078    -4.088    -0.010     -4.12
   H+              1.267e-10   1.239e-10    -9.897    -9.907    -0.009      0.00
   H2O             5.551e+01   1.000e+00     1.744    -0.000     0.000     18.07
C(-4)         0.000e+00
   CH4             0.000e+00   0.000e+00  -132.980  -132.980     0.000     35.46
C(4)          1.230e-04
   HCO3-           8.352e-05   8.168e-05    -4.078    -4.088    -0.010     24.67
   CO3-2           3.379e-05   3.091e-05    -4.471    -4.510    -0.039     -5.32
   CaCO3           5.564e-06   5.565e-06    -5.255    -5.255     0.000    -14.60
   CaHCO3+         1.142e-07   1.117e-07    -6.942    -6.952    -0.010      9.66
   CO2             2.276e-08   2.276e-08    -7.643    -7.643     0.000     34.43
   (CO2)2          9.507e-18   9.508e-18   -17.022   -17.022     0.000     68.87
Ca            1.230e-04
   Ca+2            1.172e-04   1.072e-04    -3.931    -3.970    -0.039    -18.18
   CaCO3           5.564e-06   5.565e-06    -5.255    -5.255     0.000    -14.60
   CaOH+           1.468e-07   1.435e-07    -6.833    -6.843    -0.010     (0)  
   CaHCO3+         1.142e-07   1.117e-07    -6.942    -6.952    -0.010      9.66
H(0)          0.000e+00
   H2              0.000e+00   0.000e+00   -40.582   -40.582     0.000     28.61
O(0)          1.215e-11
   O2              6.075e-12   6.075e-12   -11.216   -11.216     0.000     30.40

------------------------------Saturation indices-------------------------------

  Phase               SI** log IAP   log K(298 K,   1 atm)

  Aragonite        -0.14     -8.48   -8.34  CaCO3
  Calcite          -0.00     -8.48   -8.48  CaCO3
  CH4(g)         -130.18   -132.98   -2.80  CH4
  CO2(g)           -6.17     -7.64   -1.47  CO2
  H2(g)           -37.48    -40.58   -3.10  H2
  H2O(g)           -1.50     -0.00    1.50  H2O
  O2(g)            -8.32    -11.22   -2.89  O2

**For a gas, SI = log10(fugacity). Fugacity = pressure * phi / 1 atm.
  For ideal gases, phi = 1.

Reaction step 98.

Using solution 1.	
Using kinetics 1.	

Kinetics 1.	

	Time step: 1.57788e+07 seconds  (Incremented time: 1.54632e+09 seconds)

	Rate name       Delta Moles Total Moles   Reactant        Coefficient

	Calcite           7.963e-11   8.770e-04   Calcite                   1

-----------------------------Solution composition------------------------------

	Elements           Molality       Moles

	C                 1.230e-04   1.230e-04
	Ca                1.230e-04   1.230e-04

----------------------------Description of solution----------------------------

                                       pH  =   9.907      Charge balance
                                       pe  =   8.809      Adjusted to redox equilibrium
      Specific Conductance (µS/cm,  25°C)  = 38
                          Density (g/cm³)  =   0.99706
                               Volume (L)  =   1.00296
                        Activity of water  =   1.000
                 Ionic strength (mol/kgw)  =   3.856e-04
                       Mass of water (kg)  =   1.000e+00
                 Total alkalinity (eq/kg)  =   2.460e-04
                       Total CO2 (mol/kg)  =   1.230e-04
                         Temperature (°C)  =  25.00
                  Electrical balance (eq)  =  -3.061e-09
 Percent error, 100*(Cat-|An|)/(Cat+|An|)  =  -0.00
                               Iterations  = 7441 (7432 overall)
                                  Total H  = 1.110124e+02
                                  Total O  = 5.550659e+01

----------------------------Distribution of species----------------------------

                                               Log       Log       Log    mole V
   Species          Molality    Activity  Molality  Activity     Gamma   cm³/mol

   OH-             8.353e-05   8.167e-05    -4.078    -4.088    -0.010     -4.12
   H+              1.267e-10   1.239e-10    -9.897    -9.907    -0.009      0.00
   H2O             5.551e+01   1.000e+00     1.744    -0.000     0.000     18.07
C(-4)         0.000e+00
   CH4             0.000e+00   0.000e+00  -132.976  -132.976     0.000     35.46
C(4)          1.230e-04
   HCO3-           8.352e-05   8.168e-05    -4.078    -4.088    -0.010     24.67
   CO3-2           3.379e-05   3.091e-05    -4.471    -4.510    -0.039     -5.32
   CaCO3           5.564e-06   5.565e-06    -5.255    -5.255     0.000    -14.60
   CaHCO3+         1.142e-07   1.117e-07    -6.942    -6.952    -0.010      9.66
   CO2             2.276e-08   2.276e-08    -7.643    -7.643     0.000     34.43
   (CO2)2          9.507e-18   9.508e-18   -17.022   -17.022     0.000     68.87
Ca            1.230e-04
   Ca+2            1.172e-04   1.072e-04    -3.931    -3.970    -0.039    -18.18
   CaCO3           5.564e-06   5.565e-06    -5.255    -5.255     0.000    -14.60
   CaOH+           1.468e-07   1.435e-07    -6.833    -6.843    -0.010     (0)  
   CaHCO3+         1.142e-07   1.117e-07    -6.942    -6.952    -0.010      9.66
H(0)          0.000e+00
   H2              0.000e+00   0.000e+00   -40.581   -40.581     0.000     28.61
O(0)          1.210e-11
   O2              6.052e-12   6.052e-12   -11.218   -11.218     0.000     30.40

------------------------------Saturation indices-------------------------------

  Phase               SI** log IAP   log K(298 K,   1 atm)

  Aragonite        -0.14     -8.48   -8.34  CaCO3
  Calcite          -0.00     -8.48   -8.48  CaCO3
  CH4(g)         -130.17   -132.98   -2.80  CH4
  CO2(g)           -6.17     -7.64   -1.47  CO2
  H2(g)           -37.48    -40.58   -3.10  H2
  H2O(g)           -1.50     -0.00    1.50  H2O
  O2(g)            -8.33    -11.22   -2.89  O2

**For a gas, SI = log10(fugacity). Fugacity = pressure * phi / 1 atm.
  For ideal gases, phi = 1.

Reaction step 99.

Using solution 1.	
Using kinetics 1.	

Kinetics 1.	

	Time step: 1.57788e+07 seconds  (Incremented time: 1.5621e+09 seconds)

	Rate name       Delta Moles Total Moles   Reactant        Coefficient

	Calcite          -5.079e-11   8.770e-04   Calcite                   1

-----------------------------Solution composition------------------------------

	Elements           Molality       Moles

	C                 1.230e-04   1.230e-04
	Ca                1.230e-04   1.230e-04

----------------------------Description of solution----------------------------

                                       pH  =   9.907      Charge balance
                                       pe  =   8.807      Adjusted to redox equilibrium
      Specific Conductance (µS/cm,  25°C)  = 38
                          Density (g/cm³)  =   0.99706
                               Volume (L)  =   1.00296
                        Activity of water  =   1.000
                 Ionic strength (mol/kgw)  =   3.856e-04
                       Mass of water (kg)  =   1.000e+00
                 Total alkalinity (eq/kg)  =   2.460e-04
                       Total CO2 (mol/kg)  =   1.230e-04
                         Temperature (°C)  =  25.00
                  Electrical balance (eq)  =  -3.079e-09
 Percent error, 100*(Cat-|An|)/(Cat+|An|)  =  -0.00
                               Iterations  = 7423 (7414 overall)
                                  Total H  = 1.110124e+02
                                  Total O  = 5.550659e+01

----------------------------Distribution of species----------------------------

                                               Log       Log       Log    mole V
   Species          Molality    Activity  Molality  Activity     Gamma   cm³/mol

   OH-             8.353e-05   8.167e-05    -4.078    -4.088    -0.010     -4.12
   H+              1.267e-10   1.239e-10    -9.897    -9.907    -0.009      0.00
   H2O             5.551e+01   1.000e+00     1.744    -0.000     0.000     18.07
C(-4)         0.000e+00
   CH4             0.000e+00   0.000e+00  -132.961  -132.961     0.000     35.46
C(4)          1.230e-04
   HCO3-           8.352e-05   8.168e-05    -4.078    -4.088    -0.010     24.67
   CO3-2           3.379e-05   3.091e-05    -4.471    -4.510    -0.039     -5.32
   CaCO3           5.564e-06   5.565e-06    -5.255    -5.255     0.000    -14.60
   CaHCO3+         1.142e-07   1.117e-07    -6.942    -6.952    -0.010      9.66
   CO2             2.276e-08   2.276e-08    -7.643    -7.643     0.000     34.43
   (CO2)2          9.507e-18   9.508e-18   -17.022   -17.022     0.000     68.87
Ca            1.230e-04
   Ca+2            1.172e-04   1.072e-04    -3.931    -3.970    -0.039    -18.18
   CaCO3           5.564e-06   5.565e-06    -5.255    -5.255     0.000    -14.60
   CaOH+           1.468e-07   1.435e-07    -6.833    -6.843    -0.010     (0)  
   CaHCO3+         1.142e-07   1.117e-07    -6.942    -6.952    -0.010      9.66
H(0)          0.000e+00
   H2              0.000e+00   0.000e+00   -40.577   -40.577     0.000     28.61
O(0)          1.189e-11
   O2              5.945e-12   5.946e-12   -11.226   -11.226     0.000     30.40

------------------------------Saturation indices-------------------------------

  Phase               SI** log IAP   log K(298 K,   1 atm)

  Aragonite        -0.14     -8.48   -8.34  CaCO3
  Calcite          -0.00     -8.48   -8.48  CaCO3
  CH4(g)         -130.16   -132.96   -2.80  CH4
  CO2(g)           -6.17     -7.64   -1.47  CO2
  H2(g)           -37.48    -40.58   -3.10  H2
  H2O(g)           -1.50     -0.00    1.50  H2O
  O2(g)            -8.33    -11.23   -2.89  O2

**For a gas, SI = log10(fugacity). Fugacity = pressure * phi / 1 atm.
  For ideal gases, phi = 1.

Reaction step 100.

Using solution 1.	
Using kinetics 1.	

Kinetics 1.	

	Time step: 1.57788e+07 seconds  (Incremented time: 1.57788e+09 seconds)

	Rate name       Delta Moles Total Moles   Reactant        Coefficient

	Calcite           2.255e-10   8.770e-04   Calcite                   1

-----------------------------Solution composition------------------------------

	Elements           Molality       Moles

	C                 1.230e-04   1.230e-04
	Ca                1.230e-04   1.230e-04

----------------------------Description of solution----------------------------

                                       pH  =   9.907      Charge balance
                                       pe  =   8.807      Adjusted to redox equilibrium
      Specific Conductance (µS/cm,  25°C)  = 38
                          Density (g/cm³)  =   0.99706
                               Volume (L)  =   1.00296
                        Activity of water  =   1.000
                 Ionic strength (mol/kgw)  =   3.856e-04
                       Mass of water (kg)  =   1.000e+00
                 Total alkalinity (eq/kg)  =   2.460e-04
                       Total CO2 (mol/kg)  =   1.230e-04
                         Temperature (°C)  =  25.00
                  Electrical balance (eq)  =  -3.098e-09
 Percent error, 100*(Cat-|An|)/(Cat+|An|)  =  -0.00
                               Iterations  = 7435 (7427 overall)
                                  Total H  = 1.110124e+02
                                  Total O  = 5.550659e+01

----------------------------Distribution of species----------------------------

                                               Log       Log       Log    mole V
   Species          Molality    Activity  Molality  Activity     Gamma   cm³/mol

   OH-             8.353e-05   8.167e-05    -4.078    -4.088    -0.010     -4.12
   H+              1.267e-10   1.239e-10    -9.897    -9.907    -0.009      0.00
   H2O             5.551e+01   1.000e+00     1.744    -0.000     0.000     18.07
C(-4)         0.000e+00
   CH4             0.000e+00   0.000e+00  -132.964  -132.964     0.000     35.46
C(4)          1.230e-04
   HCO3-           8.352e-05   8.168e-05    -4.078    -4.088    -0.010     24.67
   CO3-2           3.379e-05   3.091e-05    -4.471    -4.510    -0.039     -5.32
   CaCO3           5.564e-06   5.565e-06    -5.255    -5.255     0.000    -14.60
   CaHCO3+         1.142e-07   1.117e-07    -6.942    -6.952    -0.010      9.66
   CO2             2.276e-08   2.276e-08    -7.643    -7.643     0.000     34.43
   (CO2)2          9.507e-18   9.508e-18   -17.022   -17.022     0.000     68.87
Ca            1.230e-04
   Ca+2            1.172e-04   1.072e-04    -3.931    -3.970    -0.039    -18.18
   CaCO3           5.564e-06   5.565e-06    -5.255    -5.255     0.000    -14.60
   CaOH+           1.468e-07   1.435e-07    -6.833    -6.843    -0.010     (0)  
   CaHCO3+         1.142e-07   1.117e-07    -6.942    -6.952    -0.010      9.66
H(0)          0.000e+00
   H2              0.000e+00   0.000e+00   -40.578   -40.578     0.000     28.61
O(0)          1.193e-11
   O2              5.964e-12   5.964e-12   -11.224   -11.224     0.000     30.40

------------------------------Saturation indices-------------------------------

  Phase               SI** log IAP   log K(298 K,   1 atm)

  Aragonite        -0.14     -8.48   -8.34  CaCO3
  Calcite          -0.00     -8.48   -8.48  CaCO3
  CH4(g)         -130.16   -132.96   -2.80  CH4
  CO2(g)           -6.17     -7.64   -1.47  CO2
  H2(g)           -37.48    -40.58   -3.10  H2
  H2O(g)           -1.50     -0.00    1.50  H2O
  O2(g)            -8.33    -11.22   -2.89  O2

**For a gas, SI = log10(fugacity). Fugacity = pressure * phi / 1 atm.
  For ideal gases, phi = 1.

------------------
End of simulation.
------------------

------------------------------------
Reading input data for simulation 2.
------------------------------------

--------------------------------
End of Run after 52.191 Seconds.
--------------------------------

