   Input file: l3.phr
  Output file: l3.phr.out
Database file: C:\Users\Eirik\Desktop\phreeqc-3.6.2-15100-x64\database\phreeqc.dat

------------------
Reading data base.
------------------

	SOLUTION_MASTER_SPECIES
	SOLUTION_SPECIES
	PHASES
	EXCHANGE_MASTER_SPECIES
	EXCHANGE_SPECIES
	SURFACE_MASTER_SPECIES
	SURFACE_SPECIES
	RATES
	END
------------------------------------
Reading input data for simulation 1.
------------------------------------

	Database file: C:\Users\Eirik\Desktop\phreeqc-3.6.2-15100-x64\database\phreeqc.dat
	SOLUTION 1
		temp 25
	EQUILIBRIUM_PHASES 1
		CO2(g)	-3.5
		O2(g) -0.7
	RATES 1
	Calsite
		start
		1 ka = parm(1)		#Rate constant for acid mechanism (mol/m^2/s)
		2 n = parm(2)		#Reaction order n with respect to H+	
		3 kn = parm(3)		#Rate constant for acid mechanism (mol/m^2/s)
		10 rate = ((ka*(ACT("H+")^n)) + kn)* (1 -  SR("Calcite"))	#Overall rate
		20 moles = rate*time
		30 save moles
		end
	KINETICS 1
	Calcite
		formula CaCO3
		m0  1e-3             			#Initial amount 1 mmol     	
		parms 0.501 1 1.5e-6			#Values for ka, n and kn
		time_steps 1500 years in 100          #60 years in 100 time steps
	INCREMENTAL_REACTIONS true
	USER_PUNCH 				#Write the simulation time in years to the selected output file
		headings time_yr
		10 PUNCH total_time/3.1536e7 
	SELECTED_OUTPUT 
		file ex1.xls
		reset false
		time true
		kinetic_reactants Calcite
		saturation_indices Calcite
		step true
		ph true
	USER_GRAPH 1
		-chart_title "Calcite saturation, T=25, gasses in equilibrium"
		-axis_titles "Years" "SR" "Calcite remaining (mmol)"
		-headings time SR Calcite_remaining
		-initial_solutions  false
		-start
		10 graph_x total_time/3.1536e7 		
		20 graph_y SR("Calcite")		
		30 graph_sy KIN("Calcite")*1e3		
		-end
	END
-------------------------------------------
Beginning of initial solution calculations.
-------------------------------------------

Initial solution 1.	

-----------------------------Solution composition------------------------------

	Elements           Molality       Moles

	Pure water     

----------------------------Description of solution----------------------------

                                       pH  =   7.000    
                                       pe  =   4.000    
      Specific Conductance (µS/cm,  25°C)  = 0
                          Density (g/cm³)  =   0.99704
                               Volume (L)  =   1.00297
                        Activity of water  =   1.000
                 Ionic strength (mol/kgw)  =   1.007e-07
                       Mass of water (kg)  =   1.000e+00
                 Total alkalinity (eq/kg)  =   1.217e-09
                         Temperature (°C)  =  25.00
                  Electrical balance (eq)  =  -1.217e-09
 Percent error, 100*(Cat-|An|)/(Cat+|An|)  =  -0.60
                               Iterations  =   0
                                  Total H  = 1.110124e+02
                                  Total O  = 5.550622e+01

----------------------------Distribution of species----------------------------

                                               Log       Log       Log    mole V
   Species          Molality    Activity  Molality  Activity     Gamma   cm³/mol

   OH-             1.013e-07   1.012e-07    -6.995    -6.995    -0.000     -4.14
   H+              1.001e-07   1.000e-07    -7.000    -7.000    -0.000      0.00
   H2O             5.551e+01   1.000e+00     1.744     0.000     0.000     18.07
H(0)          1.416e-25
   H2              7.079e-26   7.079e-26   -25.150   -25.150     0.000     28.61
O(0)          0.000e+00
   O2              0.000e+00   0.000e+00   -42.080   -42.080     0.000     30.40

------------------------------Saturation indices-------------------------------

  Phase               SI** log IAP   log K(298 K,   1 atm)

  H2(g)           -22.05    -25.15   -3.10  H2
  H2O(g)           -1.50      0.00    1.50  H2O
  O2(g)           -39.19    -42.08   -2.89  O2

**For a gas, SI = log10(fugacity). Fugacity = pressure * phi / 1 atm.
  For ideal gases, phi = 1.

-----------------------------------------
Beginning of batch-reaction calculations.
-----------------------------------------

Reaction step 1.

Using solution 1.	
Using pure phase assemblage 1.	
Using kinetics 1.	

Kinetics 1.	

	Time step: 4.73364e+08 seconds  (Incremented time: 4.73364e+08 seconds)

	Rate name       Delta Moles Total Moles   Reactant        Coefficient

	Calcite          -3.100e-05   9.690e-04   CaCO3                     1

-------------------------------Phase assemblage--------------------------------

                                                      Moles in assemblage
Phase               SI  log IAP  log K(T, P)   Initial       Final       Delta

CO2(g)           -3.50    -4.97     -1.47    1.000e+01   1.000e+01  -4.167e-05
O2(g)            -0.70    -3.59     -2.89    1.000e+01   1.000e+01  -2.556e-04

-----------------------------Solution composition------------------------------

	Elements           Molality       Moles

	C                 7.267e-05   7.267e-05
	Ca                3.100e-05   3.100e-05

----------------------------Description of solution----------------------------

                                       pH  =   7.106      Charge balance
                                       pe  =  13.515      Adjusted to redox equilibrium
      Specific Conductance (µS/cm,  25°C)  = 6
                          Density (g/cm³)  =   0.99705
                               Volume (L)  =   1.00297
                        Activity of water  =   1.000
                 Ionic strength (mol/kgw)  =   9.306e-05
                       Mass of water (kg)  =   1.000e+00
                 Total alkalinity (eq/kg)  =   6.200e-05
                       Total CO2 (mol/kg)  =   7.267e-05
                         Temperature (°C)  =  25.00
                  Electrical balance (eq)  =  -1.217e-09
 Percent error, 100*(Cat-|An|)/(Cat+|An|)  =  -0.00
                               Iterations  = 168
                                  Total H  = 1.110124e+02
                                  Total O  = 5.550690e+01

----------------------------Distribution of species----------------------------

                                               Log       Log       Log    mole V
   Species          Molality    Activity  Molality  Activity     Gamma   cm³/mol

   OH-             1.308e-07   1.293e-07    -6.883    -6.888    -0.005     -4.13
   H+              7.912e-08   7.825e-08    -7.102    -7.106    -0.005      0.00
   H2O             5.551e+01   1.000e+00     1.744    -0.000     0.000     18.07
C(-4)         0.000e+00
   CH4             0.000e+00   0.000e+00  -145.553  -145.553     0.000     35.46
C(4)          7.267e-05
   HCO3-           6.184e-05   6.116e-05    -4.209    -4.214    -0.005     24.66
   CO2             1.076e-05   1.076e-05    -4.968    -4.968     0.000     34.43
   CO3-2           3.832e-08   3.665e-08    -7.417    -7.436    -0.019     -5.36
   CaHCO3+         2.337e-08   2.311e-08    -7.631    -7.636    -0.005      9.65
   CaCO3           1.824e-09   1.824e-09    -8.739    -8.739     0.000    -14.60
   (CO2)2          2.125e-12   2.125e-12   -11.673   -11.673     0.000     68.87
Ca            3.100e-05
   Ca+2            3.097e-05   2.962e-05    -4.509    -4.528    -0.019    -18.22
   CaHCO3+         2.337e-08   2.311e-08    -7.631    -7.636    -0.005      9.65
   CaCO3           1.824e-09   1.824e-09    -8.739    -8.739     0.000    -14.60
   CaOH+           6.353e-11   6.282e-11   -10.197   -10.202    -0.005     (0)  
H(0)          0.000e+00
   H2              0.000e+00   0.000e+00   -44.394   -44.394     0.000     28.61
O(0)          5.112e-04
   O2              2.556e-04   2.556e-04    -3.592    -3.592     0.000     30.40

------------------------------Saturation indices-------------------------------

  Phase               SI** log IAP   log K(298 K,   1 atm)

  Aragonite        -3.63    -11.96   -8.34  CaCO3
  Calcite          -3.48    -11.96   -8.48  CaCO3
  CH4(g)         -142.75   -145.55   -2.80  CH4
  CO2(g)           -3.50     -4.97   -1.47  CO2	 Pressure   0.0 atm, phi 1.000
  H2(g)           -41.29    -44.39   -3.10  H2
  H2O(g)           -1.50     -0.00    1.50  H2O
  O2(g)            -0.70     -3.59   -2.89  O2	 Pressure   0.2 atm, phi 1.000

**For a gas, SI = log10(fugacity). Fugacity = pressure * phi / 1 atm.
  For ideal gases, phi = 1.

Reaction step 2.

Using solution 1.	
Using pure phase assemblage 1.	
Using kinetics 1.	

Kinetics 1.	

	Time step: 4.73364e+08 seconds  (Incremented time: 9.46728e+08 seconds)

	Rate name       Delta Moles Total Moles   Reactant        Coefficient

	Calcite          -2.749e-05   9.415e-04   CaCO3                     1

-------------------------------Phase assemblage--------------------------------

                                                      Moles in assemblage
Phase               SI  log IAP  log K(T, P)   Initial       Final       Delta

CO2(g)           -3.50    -4.97     -1.47    1.000e+01   1.000e+01  -2.722e-05
O2(g)            -0.70    -3.59     -2.89    1.000e+01   1.000e+01   4.974e-09

-----------------------------Solution composition------------------------------

	Elements           Molality       Moles

	C                 1.274e-04   1.274e-04
	Ca                5.848e-05   5.848e-05

----------------------------Description of solution----------------------------

                                       pH  =   7.379      Charge balance
                                       pe  =  13.243      Adjusted to redox equilibrium
      Specific Conductance (µS/cm,  25°C)  = 11
                          Density (g/cm³)  =   0.99705
                               Volume (L)  =   1.00297
                        Activity of water  =   1.000
                 Ionic strength (mol/kgw)  =   1.754e-04
                       Mass of water (kg)  =   1.000e+00
                 Total alkalinity (eq/kg)  =   1.170e-04
                       Total CO2 (mol/kg)  =   1.274e-04
                         Temperature (°C)  =  25.00
                  Electrical balance (eq)  =  -1.217e-09
 Percent error, 100*(Cat-|An|)/(Cat+|An|)  =  -0.00
                               Iterations  =  28
                                  Total H  = 1.110124e+02
                                  Total O  = 5.550704e+01

----------------------------Distribution of species----------------------------

                                               Log       Log       Log    mole V
   Species          Molality    Activity  Molality  Activity     Gamma   cm³/mol

   OH-             2.462e-07   2.424e-07    -6.609    -6.615    -0.007     -4.13
   H+              4.238e-08   4.175e-08    -7.373    -7.379    -0.007      0.00
   H2O             5.551e+01   1.000e+00     1.744    -0.000     0.000     18.07
C(-4)         0.000e+00
   CH4             0.000e+00   0.000e+00  -145.553  -145.553     0.000     35.46
C(4)          1.274e-04
   HCO3-           1.164e-04   1.146e-04    -3.934    -3.941    -0.007     24.66
   CO2             1.076e-05   1.076e-05    -4.968    -4.968     0.000     34.43
   CO3-2           1.368e-07   1.288e-07    -6.864    -6.890    -0.026     -5.34
   CaHCO3+         8.159e-08   8.036e-08    -7.088    -7.095    -0.007      9.66
   CaCO3           1.188e-08   1.188e-08    -7.925    -7.925     0.000    -14.60
   (CO2)2          2.125e-12   2.125e-12   -11.673   -11.673     0.000     68.87
Ca            5.848e-05
   Ca+2            5.839e-05   5.494e-05    -4.234    -4.260    -0.026    -18.21
   CaHCO3+         8.159e-08   8.036e-08    -7.088    -7.095    -0.007      9.66
   CaCO3           1.188e-08   1.188e-08    -7.925    -7.925     0.000    -14.60
   CaOH+           2.218e-10   2.184e-10    -9.654    -9.661    -0.007     (0)  
H(0)          0.000e+00
   H2              0.000e+00   0.000e+00   -44.394   -44.394     0.000     28.61
O(0)          5.112e-04
   O2              2.556e-04   2.556e-04    -3.592    -3.592     0.000     30.40

------------------------------Saturation indices-------------------------------

  Phase               SI** log IAP   log K(298 K,   1 atm)

  Aragonite        -2.81    -11.15   -8.34  CaCO3
  Calcite          -2.67    -11.15   -8.48  CaCO3
  CH4(g)         -142.75   -145.55   -2.80  CH4
  CO2(g)           -3.50     -4.97   -1.47  CO2	 Pressure   0.0 atm, phi 1.000
  H2(g)           -41.29    -44.39   -3.10  H2
  H2O(g)           -1.50     -0.00    1.50  H2O
  O2(g)            -0.70     -3.59   -2.89  O2	 Pressure   0.2 atm, phi 1.000

**For a gas, SI = log10(fugacity). Fugacity = pressure * phi / 1 atm.
  For ideal gases, phi = 1.

Reaction step 3.

Using solution 1.	
Using pure phase assemblage 1.	
Using kinetics 1.	

Kinetics 1.	

	Time step: 4.73364e+08 seconds  (Incremented time: 1.42009e+09 seconds)

	Rate name       Delta Moles Total Moles   Reactant        Coefficient

	Calcite          -2.608e-05   9.154e-04   CaCO3                     1

-------------------------------Phase assemblage--------------------------------

                                                      Moles in assemblage
Phase               SI  log IAP  log K(T, P)   Initial       Final       Delta

CO2(g)           -3.50    -4.97     -1.47    1.000e+01   1.000e+01  -2.578e-05
O2(g)            -0.70    -3.59     -2.89    1.000e+01   1.000e+01   4.717e-09

-----------------------------Solution composition------------------------------

	Elements           Molality       Moles

	C                 1.792e-04   1.792e-04
	Ca                8.456e-05   8.456e-05

----------------------------Description of solution----------------------------

                                       pH  =   7.537      Charge balance
                                       pe  =  13.084      Adjusted to redox equilibrium
      Specific Conductance (µS/cm,  25°C)  = 17
                          Density (g/cm³)  =   0.99705
                               Volume (L)  =   1.00297
                        Activity of water  =   1.000
                 Ionic strength (mol/kgw)  =   2.536e-04
                       Mass of water (kg)  =   1.000e+00
                 Total alkalinity (eq/kg)  =   1.691e-04
                       Total CO2 (mol/kg)  =   1.792e-04
                         Temperature (°C)  =  25.00
                  Electrical balance (eq)  =  -1.217e-09
 Percent error, 100*(Cat-|An|)/(Cat+|An|)  =  -0.00
                               Iterations  =  24
                                  Total H  = 1.110124e+02
                                  Total O  = 5.550717e+01

----------------------------Distribution of species----------------------------

                                               Log       Log       Log    mole V
   Species          Molality    Activity  Molality  Activity     Gamma   cm³/mol

   OH-             3.553e-07   3.489e-07    -6.449    -6.457    -0.008     -4.12
   H+              2.953e-08   2.901e-08    -7.530    -7.537    -0.008      0.00
   H2O             5.551e+01   1.000e+00     1.744    -0.000     0.000     18.07
C(-4)         0.000e+00
   CH4             0.000e+00   0.000e+00  -145.553  -145.553     0.000     35.46
C(4)          1.792e-04
   HCO3-           1.680e-04   1.650e-04    -3.775    -3.783    -0.008     24.67
   CO2             1.076e-05   1.076e-05    -4.968    -4.968     0.000     34.43
   CO3-2           2.868e-07   2.667e-07    -6.542    -6.574    -0.032     -5.33
   CaHCO3+         1.681e-07   1.651e-07    -6.774    -6.782    -0.008      9.66
   CaCO3           3.513e-08   3.514e-08    -7.454    -7.454     0.000    -14.60
   (CO2)2          2.125e-12   2.125e-12   -11.673   -11.673     0.000     68.87
Ca            8.456e-05
   Ca+2            8.436e-05   7.844e-05    -4.074    -4.105    -0.032    -18.20
   CaHCO3+         1.681e-07   1.651e-07    -6.774    -6.782    -0.008      9.66
   CaCO3           3.513e-08   3.514e-08    -7.454    -7.454     0.000    -14.60
   CaOH+           4.570e-10   4.487e-10    -9.340    -9.348    -0.008     (0)  
H(0)          0.000e+00
   H2              0.000e+00   0.000e+00   -44.394   -44.394     0.000     28.61
O(0)          5.112e-04
   O2              2.556e-04   2.556e-04    -3.592    -3.592     0.000     30.40

------------------------------Saturation indices-------------------------------

  Phase               SI** log IAP   log K(298 K,   1 atm)

  Aragonite        -2.34    -10.68   -8.34  CaCO3
  Calcite          -2.20    -10.68   -8.48  CaCO3
  CH4(g)         -142.75   -145.55   -2.80  CH4
  CO2(g)           -3.50     -4.97   -1.47  CO2	 Pressure   0.0 atm, phi 1.000
  H2(g)           -41.29    -44.39   -3.10  H2
  H2O(g)           -1.50     -0.00    1.50  H2O
  O2(g)            -0.70     -3.59   -2.89  O2	 Pressure   0.2 atm, phi 1.000

**For a gas, SI = log10(fugacity). Fugacity = pressure * phi / 1 atm.
  For ideal gases, phi = 1.

Reaction step 4.

Using solution 1.	
Using pure phase assemblage 1.	
Using kinetics 1.	

Kinetics 1.	

	Time step: 4.73364e+08 seconds  (Incremented time: 1.89346e+09 seconds)

	Rate name       Delta Moles Total Moles   Reactant        Coefficient

	Calcite          -2.475e-05   8.907e-04   CaCO3                     1

-------------------------------Phase assemblage--------------------------------

                                                      Moles in assemblage
Phase               SI  log IAP  log K(T, P)   Initial       Final       Delta

CO2(g)           -3.50    -4.97     -1.47    1.000e+01   1.000e+01  -2.441e-05
O2(g)            -0.70    -3.59     -2.89    1.000e+01   1.000e+01   4.474e-09

-----------------------------Solution composition------------------------------

	Elements           Molality       Moles

	C                 2.284e-04   2.284e-04
	Ca                1.093e-04   1.093e-04

----------------------------Description of solution----------------------------

                                       pH  =   7.647      Charge balance
                                       pe  =  12.975      Adjusted to redox equilibrium
      Specific Conductance (µS/cm,  25°C)  = 21
                          Density (g/cm³)  =   0.99706
                               Volume (L)  =   1.00298
                        Activity of water  =   1.000
                 Ionic strength (mol/kgw)  =   3.277e-04
                       Mass of water (kg)  =   1.000e+00
                 Total alkalinity (eq/kg)  =   2.186e-04
                       Total CO2 (mol/kg)  =   2.284e-04
                         Temperature (°C)  =  25.00
                  Electrical balance (eq)  =  -1.217e-09
 Percent error, 100*(Cat-|An|)/(Cat+|An|)  =  -0.00
                               Iterations  =  24
                                  Total H  = 1.110124e+02
                                  Total O  = 5.550729e+01

----------------------------Distribution of species----------------------------

                                               Log       Log       Log    mole V
   Species          Molality    Activity  Molality  Activity     Gamma   cm³/mol

   OH-             4.586e-07   4.492e-07    -6.339    -6.348    -0.009     -4.12
   H+              2.299e-08   2.253e-08    -7.638    -7.647    -0.009      0.00
   H2O             5.551e+01   1.000e+00     1.744    -0.000     0.000     18.07
C(-4)         0.000e+00
   CH4             0.000e+00   0.000e+00  -145.553  -145.553     0.000     35.46
C(4)          2.284e-04
   HCO3-           2.168e-04   2.124e-04    -3.664    -3.673    -0.009     24.67
   CO2             1.076e-05   1.076e-05    -4.968    -4.968     0.000     34.43
   CO3-2           4.800e-07   4.420e-07    -6.319    -6.355    -0.036     -5.32
   CaHCO3+         2.775e-07   2.719e-07    -6.557    -6.566    -0.009      9.66
   CaCO3           7.450e-08   7.451e-08    -7.128    -7.128     0.000    -14.60
   (CO2)2          2.125e-12   2.125e-12   -11.673   -11.673     0.000     68.87
Ca            1.093e-04
   Ca+2            1.090e-04   1.003e-04    -3.963    -3.999    -0.036    -18.19
   CaHCO3+         2.775e-07   2.719e-07    -6.557    -6.566    -0.009      9.66
   CaCO3           7.450e-08   7.451e-08    -7.128    -7.128     0.000    -14.60
   CaOH+           7.545e-10   7.390e-10    -9.122    -9.131    -0.009     (0)  
H(0)          0.000e+00
   H2              0.000e+00   0.000e+00   -44.394   -44.394     0.000     28.61
O(0)          5.112e-04
   O2              2.556e-04   2.556e-04    -3.592    -3.592     0.000     30.40

------------------------------Saturation indices-------------------------------

  Phase               SI** log IAP   log K(298 K,   1 atm)

  Aragonite        -2.02    -10.35   -8.34  CaCO3
  Calcite          -1.87    -10.35   -8.48  CaCO3
  CH4(g)         -142.75   -145.55   -2.80  CH4
  CO2(g)           -3.50     -4.97   -1.47  CO2	 Pressure   0.0 atm, phi 1.000
  H2(g)           -41.29    -44.39   -3.10  H2
  H2O(g)           -1.50     -0.00    1.50  H2O
  O2(g)            -0.70     -3.59   -2.89  O2	 Pressure   0.2 atm, phi 1.000

**For a gas, SI = log10(fugacity). Fugacity = pressure * phi / 1 atm.
  For ideal gases, phi = 1.

Reaction step 5.

Using solution 1.	
Using pure phase assemblage 1.	
Using kinetics 1.	

Kinetics 1.	

	Time step: 4.73364e+08 seconds  (Incremented time: 2.36682e+09 seconds)

	Rate name       Delta Moles Total Moles   Reactant        Coefficient

	Calcite          -2.343e-05   8.673e-04   CaCO3                     1

-------------------------------Phase assemblage--------------------------------

                                                      Moles in assemblage
Phase               SI  log IAP  log K(T, P)   Initial       Final       Delta

CO2(g)           -3.50    -4.97     -1.47    1.000e+01   1.000e+01  -2.304e-05
O2(g)            -0.70    -3.59     -2.89    1.000e+01   1.000e+01   4.232e-09

-----------------------------Solution composition------------------------------

	Elements           Molality       Moles

	C                 2.749e-04   2.749e-04
	Ca                1.327e-04   1.327e-04

----------------------------Description of solution----------------------------

                                       pH  =   7.730      Charge balance
                                       pe  =  12.892      Adjusted to redox equilibrium
      Specific Conductance (µS/cm,  25°C)  = 26
                          Density (g/cm³)  =   0.99706
                               Volume (L)  =   1.00298
                        Activity of water  =   1.000
                 Ionic strength (mol/kgw)  =   3.978e-04
                       Mass of water (kg)  =   1.000e+00
                 Total alkalinity (eq/kg)  =   2.655e-04
                       Total CO2 (mol/kg)  =   2.749e-04
                         Temperature (°C)  =  25.00
                  Electrical balance (eq)  =  -1.217e-09
 Percent error, 100*(Cat-|An|)/(Cat+|An|)  =  -0.00
                               Iterations  =  22
                                  Total H  = 1.110124e+02
                                  Total O  = 5.550741e+01

----------------------------Distribution of species----------------------------

                                               Log       Log       Log    mole V
   Species          Molality    Activity  Molality  Activity     Gamma   cm³/mol

   OH-             5.561e-07   5.435e-07    -6.255    -6.265    -0.010     -4.12
   H+              1.904e-08   1.862e-08    -7.720    -7.730    -0.010      0.00
   H2O             5.551e+01   1.000e+00     1.744    -0.000     0.000     18.07
C(-4)         0.000e+00
   CH4             0.000e+00   0.000e+00  -145.553  -145.553     0.000     35.46
C(4)          2.749e-04
   HCO3-           2.629e-04   2.570e-04    -3.580    -3.590    -0.010     24.67
   CO2             1.076e-05   1.076e-05    -4.968    -4.968     0.000     34.43
   CO3-2           7.085e-07   6.472e-07    -6.150    -6.189    -0.039     -5.32
   CaHCO3+         4.050e-07   3.960e-07    -6.393    -6.402    -0.010      9.66
   CaCO3           1.313e-07   1.313e-07    -6.882    -6.882     0.000    -14.60
   (CO2)2          2.125e-12   2.125e-12   -11.673   -11.673     0.000     68.87
Ca            1.327e-04
   Ca+2            1.322e-04   1.208e-04    -3.879    -3.918    -0.039    -18.18
   CaHCO3+         4.050e-07   3.960e-07    -6.393    -6.402    -0.010      9.66
   CaCO3           1.313e-07   1.313e-07    -6.882    -6.882     0.000    -14.60
   CaOH+           1.101e-09   1.076e-09    -8.958    -8.968    -0.010     (0)  
H(0)          0.000e+00
   H2              0.000e+00   0.000e+00   -44.394   -44.394     0.000     28.61
O(0)          5.112e-04
   O2              2.556e-04   2.556e-04    -3.592    -3.592     0.000     30.40

------------------------------Saturation indices-------------------------------

  Phase               SI** log IAP   log K(298 K,   1 atm)

  Aragonite        -1.77    -10.11   -8.34  CaCO3
  Calcite          -1.63    -10.11   -8.48  CaCO3
  CH4(g)         -142.75   -145.55   -2.80  CH4
  CO2(g)           -3.50     -4.97   -1.47  CO2	 Pressure   0.0 atm, phi 1.000
  H2(g)           -41.29    -44.39   -3.10  H2
  H2O(g)           -1.50     -0.00    1.50  H2O
  O2(g)            -0.70     -3.59   -2.89  O2	 Pressure   0.2 atm, phi 1.000

**For a gas, SI = log10(fugacity). Fugacity = pressure * phi / 1 atm.
  For ideal gases, phi = 1.

Reaction step 6.

Using solution 1.	
Using pure phase assemblage 1.	
Using kinetics 1.	

Kinetics 1.	

	Time step: 4.73364e+08 seconds  (Incremented time: 2.84018e+09 seconds)

	Rate name       Delta Moles Total Moles   Reactant        Coefficient

	Calcite          -2.212e-05   8.451e-04   CaCO3                     1

-------------------------------Phase assemblage--------------------------------

                                                      Moles in assemblage
Phase               SI  log IAP  log K(T, P)   Initial       Final       Delta

CO2(g)           -3.50    -4.97     -1.47    1.000e+01   1.000e+01  -2.170e-05
O2(g)            -0.70    -3.59     -2.89    1.000e+01   1.000e+01   3.991e-09

-----------------------------Solution composition------------------------------

	Elements           Molality       Moles

	C                 3.187e-04   3.187e-04
	Ca                1.549e-04   1.549e-04

----------------------------Description of solution----------------------------

                                       pH  =   7.795      Charge balance
                                       pe  =  12.826      Adjusted to redox equilibrium
      Specific Conductance (µS/cm,  25°C)  = 30
                          Density (g/cm³)  =   0.99706
                               Volume (L)  =   1.00298
                        Activity of water  =   1.000
                 Ionic strength (mol/kgw)  =   4.639e-04
                       Mass of water (kg)  =   1.000e+00
                 Total alkalinity (eq/kg)  =   3.097e-04
                       Total CO2 (mol/kg)  =   3.187e-04
                         Temperature (°C)  =  25.00
                  Electrical balance (eq)  =  -1.216e-09
 Percent error, 100*(Cat-|An|)/(Cat+|An|)  =  -0.00
                               Iterations  =  20
                                  Total H  = 1.110124e+02
                                  Total O  = 5.550752e+01

----------------------------Distribution of species----------------------------

                                               Log       Log       Log    mole V
   Species          Molality    Activity  Molality  Activity     Gamma   cm³/mol

   OH-             6.478e-07   6.320e-07    -6.189    -6.199    -0.011     -4.12
   H+              1.640e-08   1.601e-08    -7.785    -7.795    -0.010      0.00
   H2O             5.551e+01   1.000e+00     1.744    -0.000     0.000     18.07
C(-4)         0.000e+00
   CH4             0.000e+00   0.000e+00  -145.553  -145.553     0.000     35.46
C(4)          3.187e-04
   HCO3-           3.062e-04   2.989e-04    -3.514    -3.525    -0.011     24.67
   CO2             1.076e-05   1.076e-05    -4.968    -4.968     0.000     34.43
   CO3-2           9.648e-07   8.752e-07    -6.016    -6.058    -0.042     -5.31
   CaHCO3+         5.461e-07   5.330e-07    -6.263    -6.273    -0.011      9.66
   CaCO3           2.055e-07   2.055e-07    -6.687    -6.687     0.000    -14.60
   (CO2)2          2.125e-12   2.125e-12   -11.673   -11.673     0.000     68.87
Ca            1.549e-04
   Ca+2            1.541e-04   1.398e-04    -3.812    -3.855    -0.042    -18.18
   CaHCO3+         5.461e-07   5.330e-07    -6.263    -6.273    -0.011      9.66
   CaCO3           2.055e-07   2.055e-07    -6.687    -6.687     0.000    -14.60
   CaOH+           1.485e-09   1.449e-09    -8.828    -8.839    -0.011     (0)  
H(0)          0.000e+00
   H2              0.000e+00   0.000e+00   -44.394   -44.394     0.000     28.61
O(0)          5.111e-04
   O2              2.556e-04   2.556e-04    -3.592    -3.592     0.000     30.40

------------------------------Saturation indices-------------------------------

  Phase               SI** log IAP   log K(298 K,   1 atm)

  Aragonite        -1.58     -9.91   -8.34  CaCO3
  Calcite          -1.43     -9.91   -8.48  CaCO3
  CH4(g)         -142.75   -145.55   -2.80  CH4
  CO2(g)           -3.50     -4.97   -1.47  CO2	 Pressure   0.0 atm, phi 1.000
  H2(g)           -41.29    -44.39   -3.10  H2
  H2O(g)           -1.50     -0.00    1.50  H2O
  O2(g)            -0.70     -3.59   -2.89  O2	 Pressure   0.2 atm, phi 1.000

**For a gas, SI = log10(fugacity). Fugacity = pressure * phi / 1 atm.
  For ideal gases, phi = 1.

Reaction step 7.

Using solution 1.	
Using pure phase assemblage 1.	
Using kinetics 1.	

Kinetics 1.	

	Time step: 4.73364e+08 seconds  (Incremented time: 3.31355e+09 seconds)

	Rate name       Delta Moles Total Moles   Reactant        Coefficient

	Calcite          -2.084e-05   8.243e-04   CaCO3                     1

-------------------------------Phase assemblage--------------------------------

                                                      Moles in assemblage
Phase               SI  log IAP  log K(T, P)   Initial       Final       Delta

CO2(g)           -3.50    -4.97     -1.47    1.000e+01   1.000e+01  -2.038e-05
O2(g)            -0.70    -3.59     -2.89    1.000e+01   1.000e+01   3.756e-09

-----------------------------Solution composition------------------------------

	Elements           Molality       Moles

	C                 3.599e-04   3.599e-04
	Ca                1.757e-04   1.757e-04

----------------------------Description of solution----------------------------

                                       pH  =   7.849      Charge balance
                                       pe  =  12.773      Adjusted to redox equilibrium
      Specific Conductance (µS/cm,  25°C)  = 34
                          Density (g/cm³)  =   0.99707
                               Volume (L)  =   1.00298
                        Activity of water  =   1.000
                 Ionic strength (mol/kgw)  =   5.261e-04
                       Mass of water (kg)  =   1.000e+00
                 Total alkalinity (eq/kg)  =   3.514e-04
                       Total CO2 (mol/kg)  =   3.599e-04
                         Temperature (°C)  =  25.00
                  Electrical balance (eq)  =  -1.216e-09
 Percent error, 100*(Cat-|An|)/(Cat+|An|)  =  -0.00
                               Iterations  =  20
                                  Total H  = 1.110124e+02
                                  Total O  = 5.550762e+01

----------------------------Distribution of species----------------------------

                                               Log       Log       Log    mole V
   Species          Molality    Activity  Molality  Activity     Gamma   cm³/mol

   OH-             7.340e-07   7.150e-07    -6.134    -6.146    -0.011     -4.12
   H+              1.452e-08   1.416e-08    -7.838    -7.849    -0.011      0.00
   H2O             5.551e+01   1.000e+00     1.744    -0.000     0.000     18.07
C(-4)         0.000e+00
   CH4             0.000e+00   0.000e+00  -145.553  -145.553     0.000     35.46
C(4)          3.599e-04
   HCO3-           3.469e-04   3.381e-04    -3.460    -3.471    -0.011     24.67
   CO2             1.076e-05   1.076e-05    -4.968    -4.968     0.000     34.43
   CO3-2           1.242e-06   1.120e-06    -5.906    -5.951    -0.045     -5.31
   CaHCO3+         6.971e-07   6.794e-07    -6.157    -6.168    -0.011      9.66
   CaCO3           2.963e-07   2.963e-07    -6.528    -6.528     0.000    -14.60
   (CO2)2          2.125e-12   2.125e-12   -11.673   -11.673     0.000     68.87
Ca            1.757e-04
   Ca+2            1.747e-04   1.575e-04    -3.758    -3.803    -0.045    -18.17
   CaHCO3+         6.971e-07   6.794e-07    -6.157    -6.168    -0.011      9.66
   CaCO3           2.963e-07   2.963e-07    -6.528    -6.528     0.000    -14.60
   CaOH+           1.895e-09   1.847e-09    -8.722    -8.734    -0.011     (0)  
H(0)          0.000e+00
   H2              0.000e+00   0.000e+00   -44.394   -44.394     0.000     28.61
O(0)          5.111e-04
   O2              2.556e-04   2.556e-04    -3.592    -3.592     0.000     30.40

------------------------------Saturation indices-------------------------------

  Phase               SI** log IAP   log K(298 K,   1 atm)

  Aragonite        -1.42     -9.75   -8.34  CaCO3
  Calcite          -1.27     -9.75   -8.48  CaCO3
  CH4(g)         -142.75   -145.55   -2.80  CH4
  CO2(g)           -3.50     -4.97   -1.47  CO2	 Pressure   0.0 atm, phi 1.000
  H2(g)           -41.29    -44.39   -3.10  H2
  H2O(g)           -1.50     -0.00    1.50  H2O
  O2(g)            -0.70     -3.59   -2.89  O2	 Pressure   0.2 atm, phi 1.000

**For a gas, SI = log10(fugacity). Fugacity = pressure * phi / 1 atm.
  For ideal gases, phi = 1.

Reaction step 8.

Using solution 1.	
Using pure phase assemblage 1.	
Using kinetics 1.	

Kinetics 1.	

	Time step: 4.73364e+08 seconds  (Incremented time: 3.78691e+09 seconds)

	Rate name       Delta Moles Total Moles   Reactant        Coefficient

	Calcite          -1.959e-05   8.047e-04   CaCO3                     1

-------------------------------Phase assemblage--------------------------------

                                                      Moles in assemblage
Phase               SI  log IAP  log K(T, P)   Initial       Final       Delta

CO2(g)           -3.50    -4.97     -1.47    1.000e+01   1.000e+01  -1.911e-05
O2(g)            -0.70    -3.59     -2.89    1.000e+01   1.000e+01   3.527e-09

-----------------------------Solution composition------------------------------

	Elements           Molality       Moles

	C                 3.986e-04   3.986e-04
	Ca                1.953e-04   1.953e-04

----------------------------Description of solution----------------------------

                                       pH  =   7.894      Charge balance
                                       pe  =  12.728      Adjusted to redox equilibrium
      Specific Conductance (µS/cm,  25°C)  = 38
                          Density (g/cm³)  =   0.99707
                               Volume (L)  =   1.00298
                        Activity of water  =   1.000
                 Ionic strength (mol/kgw)  =   5.845e-04
                       Mass of water (kg)  =   1.000e+00
                 Total alkalinity (eq/kg)  =   3.906e-04
                       Total CO2 (mol/kg)  =   3.986e-04
                         Temperature (°C)  =  25.00
                  Electrical balance (eq)  =  -1.216e-09
 Percent error, 100*(Cat-|An|)/(Cat+|An|)  =  -0.00
                               Iterations  =  20
                                  Total H  = 1.110124e+02
                                  Total O  = 5.550772e+01

----------------------------Distribution of species----------------------------

                                               Log       Log       Log    mole V
   Species          Molality    Activity  Molality  Activity     Gamma   cm³/mol

   OH-             8.147e-07   7.925e-07    -6.089    -6.101    -0.012     -4.11
   H+              1.311e-08   1.277e-08    -7.882    -7.894    -0.012      0.00
   H2O             5.551e+01   1.000e+00     1.744    -0.000     0.000     18.07
C(-4)         0.000e+00
   CH4             0.000e+00   0.000e+00  -145.553  -145.553     0.000     35.46
C(4)          3.986e-04
   HCO3-           3.851e-04   3.747e-04    -3.414    -3.426    -0.012     24.68
   CO2             1.076e-05   1.076e-05    -4.968    -4.968     0.000     34.43
   CO3-2           1.534e-06   1.376e-06    -5.814    -5.861    -0.047     -5.30
   CaHCO3+         8.548e-07   8.319e-07    -6.068    -6.080    -0.012      9.67
   CaCO3           4.022e-07   4.022e-07    -6.396    -6.396     0.000    -14.60
   (CO2)2          2.125e-12   2.125e-12   -11.673   -11.673     0.000     68.87
Ca            1.953e-04
   Ca+2            1.940e-04   1.740e-04    -3.712    -3.759    -0.047    -18.17
   CaHCO3+         8.548e-07   8.319e-07    -6.068    -6.080    -0.012      9.67
   CaCO3           4.022e-07   4.022e-07    -6.396    -6.396     0.000    -14.60
   CaOH+           2.324e-09   2.261e-09    -8.634    -8.646    -0.012     (0)  
H(0)          0.000e+00
   H2              0.000e+00   0.000e+00   -44.394   -44.394     0.000     28.61
O(0)          5.111e-04
   O2              2.556e-04   2.556e-04    -3.592    -3.592     0.000     30.40

------------------------------Saturation indices-------------------------------

  Phase               SI** log IAP   log K(298 K,   1 atm)

  Aragonite        -1.28     -9.62   -8.34  CaCO3
  Calcite          -1.14     -9.62   -8.48  CaCO3
  CH4(g)         -142.75   -145.55   -2.80  CH4
  CO2(g)           -3.50     -4.97   -1.47  CO2	 Pressure   0.0 atm, phi 1.000
  H2(g)           -41.29    -44.39   -3.10  H2
  H2O(g)           -1.50     -0.00    1.50  H2O
  O2(g)            -0.70     -3.59   -2.89  O2	 Pressure   0.2 atm, phi 1.000

**For a gas, SI = log10(fugacity). Fugacity = pressure * phi / 1 atm.
  For ideal gases, phi = 1.

Reaction step 9.

Using solution 1.	
Using pure phase assemblage 1.	
Using kinetics 1.	

Kinetics 1.	

	Time step: 4.73364e+08 seconds  (Incremented time: 4.26028e+09 seconds)

	Rate name       Delta Moles Total Moles   Reactant        Coefficient

	Calcite          -1.839e-05   7.863e-04   CaCO3                     1

-------------------------------Phase assemblage--------------------------------

                                                      Moles in assemblage
Phase               SI  log IAP  log K(T, P)   Initial       Final       Delta

CO2(g)           -3.50    -4.97     -1.47    1.000e+01   1.000e+01  -1.789e-05
O2(g)            -0.70    -3.59     -2.89    1.000e+01   1.000e+01   3.307e-09

-----------------------------Solution composition------------------------------

	Elements           Molality       Moles

	C                 4.349e-04   4.349e-04
	Ca                2.137e-04   2.137e-04

----------------------------Description of solution----------------------------

                                       pH  =   7.932      Charge balance
                                       pe  =  12.690      Adjusted to redox equilibrium
      Specific Conductance (µS/cm,  25°C)  = 42
                          Density (g/cm³)  =   0.99707
                               Volume (L)  =   1.00298
                        Activity of water  =   1.000
                 Ionic strength (mol/kgw)  =   6.393e-04
                       Mass of water (kg)  =   1.000e+00
                 Total alkalinity (eq/kg)  =   4.274e-04
                       Total CO2 (mol/kg)  =   4.349e-04
                         Temperature (°C)  =  25.00
                  Electrical balance (eq)  =  -1.216e-09
 Percent error, 100*(Cat-|An|)/(Cat+|An|)  =  -0.00
                               Iterations  =  21
                                  Total H  = 1.110124e+02
                                  Total O  = 5.550781e+01

----------------------------Distribution of species----------------------------

                                               Log       Log       Log    mole V
   Species          Molality    Activity  Molality  Activity     Gamma   cm³/mol

   OH-             8.903e-07   8.650e-07    -6.050    -6.063    -0.013     -4.11
   H+              1.203e-08   1.170e-08    -7.920    -7.932    -0.012      0.00
   H2O             5.551e+01   1.000e+00     1.744    -0.000     0.000     18.07
C(-4)         0.000e+00
   CH4             0.000e+00   0.000e+00  -145.553  -145.553     0.000     35.46
C(4)          4.349e-04
   HCO3-           4.208e-04   4.090e-04    -3.376    -3.388    -0.012     24.68
   CO2             1.076e-05   1.076e-05    -4.968    -4.968     0.000     34.43
   CO3-2           1.836e-06   1.639e-06    -5.736    -5.785    -0.049     -5.30
   CaHCO3+         1.016e-06   9.880e-07    -5.993    -6.005    -0.012      9.67
   CaCO3           5.213e-07   5.213e-07    -6.283    -6.283     0.000    -14.60
   (CO2)2          2.125e-12   2.125e-12   -11.673   -11.673     0.000     68.87
Ca            2.137e-04
   Ca+2            2.122e-04   1.893e-04    -3.673    -3.723    -0.049    -18.16
   CaHCO3+         1.016e-06   9.880e-07    -5.993    -6.005    -0.012      9.67
   CaCO3           5.213e-07   5.213e-07    -6.283    -6.283     0.000    -14.60
   CaOH+           2.763e-09   2.685e-09    -8.559    -8.571    -0.012     (0)  
H(0)          0.000e+00
   H2              0.000e+00   0.000e+00   -44.394   -44.394     0.000     28.61
O(0)          5.111e-04
   O2              2.556e-04   2.556e-04    -3.593    -3.592     0.000     30.40

------------------------------Saturation indices-------------------------------

  Phase               SI** log IAP   log K(298 K,   1 atm)

  Aragonite        -1.17     -9.51   -8.34  CaCO3
  Calcite          -1.03     -9.51   -8.48  CaCO3
  CH4(g)         -142.75   -145.55   -2.80  CH4
  CO2(g)           -3.50     -4.97   -1.47  CO2	 Pressure   0.0 atm, phi 1.000
  H2(g)           -41.29    -44.39   -3.10  H2
  H2O(g)           -1.50     -0.00    1.50  H2O
  O2(g)            -0.70     -3.59   -2.89  O2	 Pressure   0.2 atm, phi 1.000

**For a gas, SI = log10(fugacity). Fugacity = pressure * phi / 1 atm.
  For ideal gases, phi = 1.

Reaction step 10.

Using solution 1.	
Using pure phase assemblage 1.	
Using kinetics 1.	

Kinetics 1.	

	Time step: 4.73364e+08 seconds  (Incremented time: 4.73364e+09 seconds)

	Rate name       Delta Moles Total Moles   Reactant        Coefficient

	Calcite          -1.724e-05   7.691e-04   CaCO3                     1

-------------------------------Phase assemblage--------------------------------

                                                      Moles in assemblage
Phase               SI  log IAP  log K(T, P)   Initial       Final       Delta

CO2(g)           -3.50    -4.97     -1.47    1.000e+01   1.000e+01  -1.673e-05
O2(g)            -0.70    -3.59     -2.89    1.000e+01   1.000e+01   3.097e-09

-----------------------------Solution composition------------------------------

	Elements           Molality       Moles

	C                 4.689e-04   4.689e-04
	Ca                2.309e-04   2.309e-04

----------------------------Description of solution----------------------------

                                       pH  =   7.964      Charge balance
                                       pe  =  12.657      Adjusted to redox equilibrium
      Specific Conductance (µS/cm,  25°C)  = 45
                          Density (g/cm³)  =   0.99707
                               Volume (L)  =   1.00298
                        Activity of water  =   1.000
                 Ionic strength (mol/kgw)  =   6.906e-04
                       Mass of water (kg)  =   1.000e+00
                 Total alkalinity (eq/kg)  =   4.619e-04
                       Total CO2 (mol/kg)  =   4.689e-04
                         Temperature (°C)  =  25.00
                  Electrical balance (eq)  =  -1.216e-09
 Percent error, 100*(Cat-|An|)/(Cat+|An|)  =  -0.00
                               Iterations  =  20
                                  Total H  = 1.110124e+02
                                  Total O  = 5.550790e+01

----------------------------Distribution of species----------------------------

                                               Log       Log       Log    mole V
   Species          Molality    Activity  Molality  Activity     Gamma   cm³/mol

   OH-             9.609e-07   9.326e-07    -6.017    -6.030    -0.013     -4.11
   H+              1.117e-08   1.085e-08    -7.952    -7.964    -0.012      0.00
   H2O             5.551e+01   1.000e+00     1.744    -0.000     0.000     18.07
C(-4)         0.000e+00
   CH4             0.000e+00   0.000e+00  -145.553  -145.553     0.000     35.46
C(4)          4.689e-04
   HCO3-           4.542e-04   4.410e-04    -3.343    -3.356    -0.013     24.68
   CO2             1.076e-05   1.076e-05    -4.968    -4.968     0.000     34.43
   CO3-2           2.144e-06   1.905e-06    -5.669    -5.720    -0.051     -5.29
   CaHCO3+         1.179e-06   1.145e-06    -5.928    -5.941    -0.013      9.67
   CaCO3           6.515e-07   6.516e-07    -6.186    -6.186     0.000    -14.60
   (CO2)2          2.125e-12   2.125e-12   -11.673   -11.673     0.000     68.87
Ca            2.309e-04
   Ca+2            2.291e-04   2.036e-04    -3.640    -3.691    -0.051    -18.16
   CaHCO3+         1.179e-06   1.145e-06    -5.928    -5.941    -0.013      9.67
   CaCO3           6.515e-07   6.516e-07    -6.186    -6.186     0.000    -14.60
   CaOH+           3.207e-09   3.113e-09    -8.494    -8.507    -0.013     (0)  
H(0)          0.000e+00
   H2              0.000e+00   0.000e+00   -44.394   -44.394     0.000     28.61
O(0)          5.111e-04
   O2              2.556e-04   2.556e-04    -3.593    -3.592     0.000     30.40

------------------------------Saturation indices-------------------------------

  Phase               SI** log IAP   log K(298 K,   1 atm)

  Aragonite        -1.08     -9.41   -8.34  CaCO3
  Calcite          -0.93     -9.41   -8.48  CaCO3
  CH4(g)         -142.75   -145.55   -2.80  CH4
  CO2(g)           -3.50     -4.97   -1.47  CO2	 Pressure   0.0 atm, phi 1.000
  H2(g)           -41.29    -44.39   -3.10  H2
  H2O(g)           -1.50     -0.00    1.50  H2O
  O2(g)            -0.70     -3.59   -2.89  O2	 Pressure   0.2 atm, phi 1.000

**For a gas, SI = log10(fugacity). Fugacity = pressure * phi / 1 atm.
  For ideal gases, phi = 1.

Reaction step 11.

Using solution 1.	
Using pure phase assemblage 1.	
Using kinetics 1.	

Kinetics 1.	

	Time step: 4.73364e+08 seconds  (Incremented time: 5.207e+09 seconds)

	Rate name       Delta Moles Total Moles   Reactant        Coefficient

	Calcite          -1.615e-05   7.529e-04   CaCO3                     1

-------------------------------Phase assemblage--------------------------------

                                                      Moles in assemblage
Phase               SI  log IAP  log K(T, P)   Initial       Final       Delta

CO2(g)           -3.50    -4.97     -1.47    1.000e+01   1.000e+01  -1.563e-05
O2(g)            -0.70    -3.59     -2.89    1.000e+01   1.000e+01   2.897e-09

-----------------------------Solution composition------------------------------

	Elements           Molality       Moles

	C                 5.007e-04   5.007e-04
	Ca                2.471e-04   2.471e-04

----------------------------Description of solution----------------------------

                                       pH  =   7.993      Charge balance
                                       pe  =  12.629      Adjusted to redox equilibrium
      Specific Conductance (µS/cm,  25°C)  = 48
                          Density (g/cm³)  =   0.99708
                               Volume (L)  =   1.00298
                        Activity of water  =   1.000
                 Ionic strength (mol/kgw)  =   7.387e-04
                       Mass of water (kg)  =   1.000e+00
                 Total alkalinity (eq/kg)  =   4.942e-04
                       Total CO2 (mol/kg)  =   5.007e-04
                         Temperature (°C)  =  25.00
                  Electrical balance (eq)  =  -1.216e-09
 Percent error, 100*(Cat-|An|)/(Cat+|An|)  =  -0.00
                               Iterations  =  21
                                  Total H  = 1.110124e+02
                                  Total O  = 5.550798e+01

----------------------------Distribution of species----------------------------

                                               Log       Log       Log    mole V
   Species          Molality    Activity  Molality  Activity     Gamma   cm³/mol

   OH-             1.027e-06   9.956e-07    -5.988    -6.002    -0.013     -4.11
   H+              1.047e-08   1.017e-08    -7.980    -7.993    -0.013      0.00
   H2O             5.551e+01   1.000e+00     1.744    -0.000     0.000     18.07
C(-4)         0.000e+00
   CH4             0.000e+00   0.000e+00  -145.553  -145.553     0.000     35.46
C(4)          5.007e-04
   HCO3-           4.853e-04   4.708e-04    -3.314    -3.327    -0.013     24.68
   CO2             1.076e-05   1.076e-05    -4.968    -4.968     0.000     34.43
   CO3-2           2.453e-06   2.172e-06    -5.610    -5.663    -0.053     -5.29
   CaHCO3+         1.342e-06   1.302e-06    -5.872    -5.885    -0.013      9.67
   CaCO3           7.909e-07   7.910e-07    -6.102    -6.102     0.000    -14.60
   (CO2)2          2.125e-12   2.125e-12   -11.673   -11.673     0.000     68.87
Ca            2.471e-04
   Ca+2            2.449e-04   2.168e-04    -3.611    -3.664    -0.053    -18.16
   CaHCO3+         1.342e-06   1.302e-06    -5.872    -5.885    -0.013      9.67
   CaCO3           7.909e-07   7.910e-07    -6.102    -6.102     0.000    -14.60
   CaOH+           3.650e-09   3.540e-09    -8.438    -8.451    -0.013     (0)  
H(0)          0.000e+00
   H2              0.000e+00   0.000e+00   -44.394   -44.394     0.000     28.61
O(0)          5.111e-04
   O2              2.556e-04   2.556e-04    -3.593    -3.592     0.000     30.40

------------------------------Saturation indices-------------------------------

  Phase               SI** log IAP   log K(298 K,   1 atm)

  Aragonite        -0.99     -9.33   -8.34  CaCO3
  Calcite          -0.85     -9.33   -8.48  CaCO3
  CH4(g)         -142.75   -145.55   -2.80  CH4
  CO2(g)           -3.50     -4.97   -1.47  CO2	 Pressure   0.0 atm, phi 1.000
  H2(g)           -41.29    -44.39   -3.10  H2
  H2O(g)           -1.50     -0.00    1.50  H2O
  O2(g)            -0.70     -3.59   -2.89  O2	 Pressure   0.2 atm, phi 1.000

**For a gas, SI = log10(fugacity). Fugacity = pressure * phi / 1 atm.
  For ideal gases, phi = 1.

Reaction step 12.

Using solution 1.	
Using pure phase assemblage 1.	
Using kinetics 1.	

Kinetics 1.	

	Time step: 4.73364e+08 seconds  (Incremented time: 5.68037e+09 seconds)

	Rate name       Delta Moles Total Moles   Reactant        Coefficient

	Calcite          -1.511e-05   7.378e-04   CaCO3                     1

-------------------------------Phase assemblage--------------------------------

                                                      Moles in assemblage
Phase               SI  log IAP  log K(T, P)   Initial       Final       Delta

CO2(g)           -3.50    -4.97     -1.47    1.000e+01   1.000e+01  -1.460e-05
O2(g)            -0.70    -3.59     -2.89    1.000e+01   1.000e+01   2.709e-09

-----------------------------Solution composition------------------------------

	Elements           Molality       Moles

	C                 5.304e-04   5.304e-04
	Ca                2.622e-04   2.622e-04

----------------------------Description of solution----------------------------

                                       pH  =   8.018      Charge balance
                                       pe  =  12.604      Adjusted to redox equilibrium
      Specific Conductance (µS/cm,  25°C)  = 51
                          Density (g/cm³)  =   0.99708
                               Volume (L)  =   1.00298
                        Activity of water  =   1.000
                 Ionic strength (mol/kgw)  =   7.835e-04
                       Mass of water (kg)  =   1.000e+00
                 Total alkalinity (eq/kg)  =   5.244e-04
                       Total CO2 (mol/kg)  =   5.304e-04
                         Temperature (°C)  =  25.00
                  Electrical balance (eq)  =  -1.216e-09
 Percent error, 100*(Cat-|An|)/(Cat+|An|)  =  -0.00
                               Iterations  =  19
                                  Total H  = 1.110124e+02
                                  Total O  = 5.550805e+01

----------------------------Distribution of species----------------------------

                                               Log       Log       Log    mole V
   Species          Molality    Activity  Molality  Activity     Gamma   cm³/mol

   OH-             1.088e-06   1.054e-06    -5.963    -5.977    -0.014     -4.11
   H+              9.895e-09   9.600e-09    -8.005    -8.018    -0.013      0.00
   H2O             5.551e+01   1.000e+00     1.744    -0.000     0.000     18.07
C(-4)         0.000e+00
   CH4             0.000e+00   0.000e+00  -145.553  -145.553     0.000     35.46
C(4)          5.304e-04
   HCO3-           5.144e-04   4.986e-04    -3.289    -3.302    -0.014     24.68
   CO2             1.076e-05   1.076e-05    -4.968    -4.968     0.000     34.43
   CO3-2           2.761e-06   2.436e-06    -5.559    -5.613    -0.054     -5.29
   CaHCO3+         1.504e-06   1.457e-06    -5.823    -5.836    -0.014      9.67
   CaCO3           9.374e-07   9.375e-07    -6.028    -6.028     0.000    -14.60
   (CO2)2          2.125e-12   2.125e-12   -11.673   -11.673     0.000     68.87
Ca            2.622e-04
   Ca+2            2.598e-04   2.291e-04    -3.585    -3.640    -0.054    -18.15
   CaHCO3+         1.504e-06   1.457e-06    -5.823    -5.836    -0.014      9.67
   CaCO3           9.374e-07   9.375e-07    -6.028    -6.028     0.000    -14.60
   CaOH+           4.089e-09   3.961e-09    -8.388    -8.402    -0.014     (0)  
H(0)          0.000e+00
   H2              0.000e+00   0.000e+00   -44.394   -44.394     0.000     28.61
O(0)          5.111e-04
   O2              2.556e-04   2.556e-04    -3.593    -3.592     0.000     30.40

------------------------------Saturation indices-------------------------------

  Phase               SI** log IAP   log K(298 K,   1 atm)

  Aragonite        -0.92     -9.25   -8.34  CaCO3
  Calcite          -0.77     -9.25   -8.48  CaCO3
  CH4(g)         -142.75   -145.55   -2.80  CH4
  CO2(g)           -3.50     -4.97   -1.47  CO2	 Pressure   0.0 atm, phi 1.000
  H2(g)           -41.29    -44.39   -3.10  H2
  H2O(g)           -1.50     -0.00    1.50  H2O
  O2(g)            -0.70     -3.59   -2.89  O2	 Pressure   0.2 atm, phi 1.000

**For a gas, SI = log10(fugacity). Fugacity = pressure * phi / 1 atm.
  For ideal gases, phi = 1.

Reaction step 13.

Using solution 1.	
Using pure phase assemblage 1.	
Using kinetics 1.	

Kinetics 1.	

	Time step: 4.73364e+08 seconds  (Incremented time: 6.15373e+09 seconds)

	Rate name       Delta Moles Total Moles   Reactant        Coefficient

	Calcite          -1.414e-05   7.237e-04   CaCO3                     1

-------------------------------Phase assemblage--------------------------------

                                                      Moles in assemblage
Phase               SI  log IAP  log K(T, P)   Initial       Final       Delta

CO2(g)           -3.50    -4.97     -1.47    1.000e+01   1.000e+01  -1.362e-05
O2(g)            -0.70    -3.59     -2.89    1.000e+01   1.000e+01   2.531e-09

-----------------------------Solution composition------------------------------

	Elements           Molality       Moles

	C                 5.581e-04   5.581e-04
	Ca                2.763e-04   2.763e-04

----------------------------Description of solution----------------------------

                                       pH  =   8.040      Charge balance
                                       pe  =  12.582      Adjusted to redox equilibrium
      Specific Conductance (µS/cm,  25°C)  = 54
                          Density (g/cm³)  =   0.99708
                               Volume (L)  =   1.00298
                        Activity of water  =   1.000
                 Ionic strength (mol/kgw)  =   8.255e-04
                       Mass of water (kg)  =   1.000e+00
                 Total alkalinity (eq/kg)  =   5.527e-04
                       Total CO2 (mol/kg)  =   5.581e-04
                         Temperature (°C)  =  25.00
                  Electrical balance (eq)  =  -1.216e-09
 Percent error, 100*(Cat-|An|)/(Cat+|An|)  =  -0.00
                               Iterations  =  18
                                  Total H  = 1.110124e+02
                                  Total O  = 5.550812e+01

----------------------------Distribution of species----------------------------

                                               Log       Log       Log    mole V
   Species          Molality    Activity  Molality  Activity     Gamma   cm³/mol

   OH-             1.146e-06   1.109e-06    -5.941    -5.955    -0.014     -4.11
   H+              9.414e-09   9.125e-09    -8.026    -8.040    -0.014      0.00
   H2O             5.551e+01   1.000e+00     1.744    -0.000     0.000     18.07
C(-4)         0.000e+00
   CH4             0.000e+00   0.000e+00  -145.553  -145.553     0.000     35.46
C(4)          5.581e-04
   HCO3-           5.416e-04   5.245e-04    -3.266    -3.280    -0.014     24.68
   CO2             1.076e-05   1.076e-05    -4.968    -4.968     0.000     34.43
   CO3-2           3.065e-06   2.695e-06    -5.514    -5.569    -0.056     -5.28
   CaHCO3+         1.662e-06   1.610e-06    -5.779    -5.793    -0.014      9.67
   CaCO3           1.089e-06   1.089e-06    -5.963    -5.963     0.000    -14.60
   (CO2)2          2.125e-12   2.125e-12   -11.673   -11.673     0.000     68.87
Ca            2.763e-04
   Ca+2            2.736e-04   2.406e-04    -3.563    -3.619    -0.056    -18.15
   CaHCO3+         1.662e-06   1.610e-06    -5.779    -5.793    -0.014      9.67
   CaCO3           1.089e-06   1.089e-06    -5.963    -5.963     0.000    -14.60
   CaOH+           4.520e-09   4.375e-09    -8.345    -8.359    -0.014     (0)  
H(0)          0.000e+00
   H2              0.000e+00   0.000e+00   -44.394   -44.394     0.000     28.61
O(0)          5.111e-04
   O2              2.556e-04   2.556e-04    -3.593    -3.592     0.000     30.40

------------------------------Saturation indices-------------------------------

  Phase               SI** log IAP   log K(298 K,   1 atm)

  Aragonite        -0.85     -9.19   -8.34  CaCO3
  Calcite          -0.71     -9.19   -8.48  CaCO3
  CH4(g)         -142.75   -145.55   -2.80  CH4
  CO2(g)           -3.50     -4.97   -1.47  CO2	 Pressure   0.0 atm, phi 1.000
  H2(g)           -41.29    -44.39   -3.10  H2
  H2O(g)           -1.50     -0.00    1.50  H2O
  O2(g)            -0.70     -3.59   -2.89  O2	 Pressure   0.2 atm, phi 1.000

**For a gas, SI = log10(fugacity). Fugacity = pressure * phi / 1 atm.
  For ideal gases, phi = 1.

Reaction step 14.

Using solution 1.	
Using pure phase assemblage 1.	
Using kinetics 1.	

Kinetics 1.	

	Time step: 4.73364e+08 seconds  (Incremented time: 6.6271e+09 seconds)

	Rate name       Delta Moles Total Moles   Reactant        Coefficient

	Calcite          -1.322e-05   7.104e-04   CaCO3                     1

-------------------------------Phase assemblage--------------------------------

                                                      Moles in assemblage
Phase               SI  log IAP  log K(T, P)   Initial       Final       Delta

CO2(g)           -3.50    -4.97     -1.47    1.000e+01   1.000e+01  -1.272e-05
O2(g)            -0.70    -3.59     -2.89    1.000e+01   1.000e+01   2.365e-09

-----------------------------Solution composition------------------------------

	Elements           Molality       Moles

	C                 5.841e-04   5.841e-04
	Ca                2.896e-04   2.896e-04

----------------------------Description of solution----------------------------

                                       pH  =   8.059      Charge balance
                                       pe  =  12.563      Adjusted to redox equilibrium
      Specific Conductance (µS/cm,  25°C)  = 56
                          Density (g/cm³)  =   0.99708
                               Volume (L)  =   1.00298
                        Activity of water  =   1.000
                 Ionic strength (mol/kgw)  =   8.647e-04
                       Mass of water (kg)  =   1.000e+00
                 Total alkalinity (eq/kg)  =   5.791e-04
                       Total CO2 (mol/kg)  =   5.841e-04
                         Temperature (°C)  =  25.00
                  Electrical balance (eq)  =  -1.216e-09
 Percent error, 100*(Cat-|An|)/(Cat+|An|)  =  -0.00
                               Iterations  =  20
                                  Total H  = 1.110124e+02
                                  Total O  = 5.550819e+01

----------------------------Distribution of species----------------------------

                                               Log       Log       Log    mole V
   Species          Molality    Activity  Molality  Activity     Gamma   cm³/mol

   OH-             1.200e-06   1.160e-06    -5.921    -5.935    -0.015     -4.11
   H+              9.006e-09   8.724e-09    -8.045    -8.059    -0.014      0.00
   H2O             5.551e+01   1.000e+00     1.744    -0.000     0.000     18.07
C(-4)         0.000e+00
   CH4             0.000e+00   0.000e+00  -145.553  -145.553     0.000     35.46
C(4)          5.841e-04
   HCO3-           5.669e-04   5.486e-04    -3.246    -3.261    -0.014     24.68
   CO2             1.076e-05   1.076e-05    -4.968    -4.968     0.000     34.43
   CO3-2           3.363e-06   2.949e-06    -5.473    -5.530    -0.057     -5.28
   CaHCO3+         1.817e-06   1.758e-06    -5.741    -5.755    -0.014      9.67
   CaCO3           1.244e-06   1.245e-06    -5.905    -5.905     0.000    -14.60
   (CO2)2          2.125e-12   2.125e-12   -11.673   -11.673     0.000     68.87
Ca            2.896e-04
   Ca+2            2.865e-04   2.512e-04    -3.543    -3.600    -0.057    -18.15
   CaHCO3+         1.817e-06   1.758e-06    -5.741    -5.755    -0.014      9.67
   CaCO3           1.244e-06   1.245e-06    -5.905    -5.905     0.000    -14.60
   CaOH+           4.940e-09   4.779e-09    -8.306    -8.321    -0.014     (0)  
H(0)          0.000e+00
   H2              0.000e+00   0.000e+00   -44.394   -44.394     0.000     28.61
O(0)          5.111e-04
   O2              2.555e-04   2.556e-04    -3.593    -3.592     0.000     30.40

------------------------------Saturation indices-------------------------------

  Phase               SI** log IAP   log K(298 K,   1 atm)

  Aragonite        -0.79     -9.13   -8.34  CaCO3
  Calcite          -0.65     -9.13   -8.48  CaCO3
  CH4(g)         -142.75   -145.55   -2.80  CH4
  CO2(g)           -3.50     -4.97   -1.47  CO2	 Pressure   0.0 atm, phi 1.000
  H2(g)           -41.29    -44.39   -3.10  H2
  H2O(g)           -1.50     -0.00    1.50  H2O
  O2(g)            -0.70     -3.59   -2.89  O2	 Pressure   0.2 atm, phi 1.000

**For a gas, SI = log10(fugacity). Fugacity = pressure * phi / 1 atm.
  For ideal gases, phi = 1.

Reaction step 15.

Using solution 1.	
Using pure phase assemblage 1.	
Using kinetics 1.	

Kinetics 1.	

	Time step: 4.73364e+08 seconds  (Incremented time: 7.10046e+09 seconds)

	Rate name       Delta Moles Total Moles   Reactant        Coefficient

	Calcite          -1.237e-05   6.981e-04   CaCO3                     1

-------------------------------Phase assemblage--------------------------------

                                                      Moles in assemblage
Phase               SI  log IAP  log K(T, P)   Initial       Final       Delta

CO2(g)           -3.50    -4.97     -1.47    1.000e+01   1.000e+01  -1.187e-05
O2(g)            -0.70    -3.59     -2.89    1.000e+01   1.000e+01   2.209e-09

-----------------------------Solution composition------------------------------

	Elements           Molality       Moles

	C                 6.083e-04   6.083e-04
	Ca                3.019e-04   3.019e-04

----------------------------Description of solution----------------------------

                                       pH  =   8.077      Charge balance
                                       pe  =  12.545      Adjusted to redox equilibrium
      Specific Conductance (µS/cm,  25°C)  = 59
                          Density (g/cm³)  =   0.99708
                               Volume (L)  =   1.00298
                        Activity of water  =   1.000
                 Ionic strength (mol/kgw)  =   9.013e-04
                       Mass of water (kg)  =   1.000e+00
                 Total alkalinity (eq/kg)  =   6.039e-04
                       Total CO2 (mol/kg)  =   6.083e-04
                         Temperature (°C)  =  25.00
                  Electrical balance (eq)  =  -1.216e-09
 Percent error, 100*(Cat-|An|)/(Cat+|An|)  =  -0.00
                               Iterations  =  31
                                  Total H  = 1.110124e+02
                                  Total O  = 5.550825e+01

----------------------------Distribution of species----------------------------

                                               Log       Log       Log    mole V
   Species          Molality    Activity  Molality  Activity     Gamma   cm³/mol

   OH-             1.250e-06   1.208e-06    -5.903    -5.918    -0.015     -4.11
   H+              8.656e-09   8.380e-09    -8.063    -8.077    -0.014      0.00
   H2O             5.551e+01   1.000e+00     1.744    -0.000     0.000     18.07
C(-4)         0.000e+00
   CH4             0.000e+00   0.000e+00  -145.553  -145.553     0.000     35.46
C(4)          6.083e-04
   HCO3-           5.905e-04   5.711e-04    -3.229    -3.243    -0.015     24.68
   CO2             1.076e-05   1.076e-05    -4.968    -4.968     0.000     34.43
   CO3-2           3.654e-06   3.196e-06    -5.437    -5.495    -0.058     -5.28
   CaHCO3+         1.967e-06   1.902e-06    -5.706    -5.721    -0.014      9.67
   CaCO3           1.401e-06   1.402e-06    -5.853    -5.853     0.000    -14.60
   (CO2)2          2.125e-12   2.125e-12   -11.673   -11.673     0.000     68.87
Ca            3.019e-04
   Ca+2            2.986e-04   2.611e-04    -3.525    -3.583    -0.058    -18.15
   CaHCO3+         1.967e-06   1.902e-06    -5.706    -5.721    -0.014      9.67
   CaCO3           1.401e-06   1.402e-06    -5.853    -5.853     0.000    -14.60
   CaOH+           5.349e-09   5.171e-09    -8.272    -8.286    -0.015     (0)  
H(0)          0.000e+00
   H2              0.000e+00   0.000e+00   -44.394   -44.394     0.000     28.61
O(0)          5.111e-04
   O2              2.555e-04   2.556e-04    -3.593    -3.592     0.000     30.40

------------------------------Saturation indices-------------------------------

  Phase               SI** log IAP   log K(298 K,   1 atm)

  Aragonite        -0.74     -9.08   -8.34  CaCO3
  Calcite          -0.60     -9.08   -8.48  CaCO3
  CH4(g)         -142.75   -145.55   -2.80  CH4
  CO2(g)           -3.50     -4.97   -1.47  CO2	 Pressure   0.0 atm, phi 1.000
  H2(g)           -41.29    -44.39   -3.10  H2
  H2O(g)           -1.50     -0.00    1.50  H2O
  O2(g)            -0.70     -3.59   -2.89  O2	 Pressure   0.2 atm, phi 1.000

**For a gas, SI = log10(fugacity). Fugacity = pressure * phi / 1 atm.
  For ideal gases, phi = 1.

Reaction step 16.

Using solution 1.	
Using pure phase assemblage 1.	
Using kinetics 1.	

Kinetics 1.	

	Time step: 4.73364e+08 seconds  (Incremented time: 7.57382e+09 seconds)

	Rate name       Delta Moles Total Moles   Reactant        Coefficient

	Calcite          -1.156e-05   6.865e-04   CaCO3                     1

-------------------------------Phase assemblage--------------------------------

                                                      Moles in assemblage
Phase               SI  log IAP  log K(T, P)   Initial       Final       Delta

CO2(g)           -3.50    -4.97     -1.47    1.000e+01   1.000e+01  -1.108e-05
O2(g)            -0.70    -3.59     -2.89    1.000e+01   1.000e+01   2.064e-09

-----------------------------Solution composition------------------------------

	Elements           Molality       Moles

	C                 6.310e-04   6.309e-04
	Ca                3.135e-04   3.135e-04

----------------------------Description of solution----------------------------

                                       pH  =   8.092      Charge balance
                                       pe  =  12.529      Adjusted to redox equilibrium
      Specific Conductance (µS/cm,  25°C)  = 61
                          Density (g/cm³)  =   0.99708
                               Volume (L)  =   1.00298
                        Activity of water  =   1.000
                 Ionic strength (mol/kgw)  =   9.355e-04
                       Mass of water (kg)  =   1.000e+00
                 Total alkalinity (eq/kg)  =   6.270e-04
                       Total CO2 (mol/kg)  =   6.310e-04
                         Temperature (°C)  =  25.00
                  Electrical balance (eq)  =  -1.216e-09
 Percent error, 100*(Cat-|An|)/(Cat+|An|)  =  -0.00
                               Iterations  =  19
                                  Total H  = 1.110124e+02
                                  Total O  = 5.550830e+01

----------------------------Distribution of species----------------------------

                                               Log       Log       Log    mole V
   Species          Molality    Activity  Molality  Activity     Gamma   cm³/mol

   OH-             1.296e-06   1.252e-06    -5.887    -5.902    -0.015     -4.11
   H+              8.354e-09   8.083e-09    -8.078    -8.092    -0.014      0.00
   H2O             5.551e+01   1.000e+00     1.744    -0.000     0.000     18.07
C(-4)         0.000e+00
   CH4             0.000e+00   0.000e+00  -145.553  -145.553     0.000     35.46
C(4)          6.310e-04
   HCO3-           6.126e-04   5.921e-04    -3.213    -3.228    -0.015     24.68
   CO2             1.076e-05   1.076e-05    -4.968    -4.968     0.000     34.43
   CO3-2           3.937e-06   3.435e-06    -5.405    -5.464    -0.059     -5.28
   CaHCO3+         2.112e-06   2.042e-06    -5.675    -5.690    -0.015      9.67
   CaCO3           1.559e-06   1.560e-06    -5.807    -5.807     0.000    -14.60
   (CO2)2          2.125e-12   2.125e-12   -11.673   -11.673     0.000     68.87
Ca            3.135e-04
   Ca+2            3.098e-04   2.703e-04    -3.509    -3.568    -0.059    -18.14
   CaHCO3+         2.112e-06   2.042e-06    -5.675    -5.690    -0.015      9.67
   CaCO3           1.559e-06   1.560e-06    -5.807    -5.807     0.000    -14.60
   CaOH+           5.744e-09   5.549e-09    -8.241    -8.256    -0.015     (0)  
H(0)          0.000e+00
   H2              0.000e+00   0.000e+00   -44.394   -44.394     0.000     28.61
O(0)          5.111e-04
   O2              2.555e-04   2.556e-04    -3.593    -3.592     0.000     30.40

------------------------------Saturation indices-------------------------------

  Phase               SI** log IAP   log K(298 K,   1 atm)

  Aragonite        -0.70     -9.03   -8.34  CaCO3
  Calcite          -0.55     -9.03   -8.48  CaCO3
  CH4(g)         -142.75   -145.55   -2.80  CH4
  CO2(g)           -3.50     -4.97   -1.47  CO2	 Pressure   0.0 atm, phi 1.000
  H2(g)           -41.29    -44.39   -3.10  H2
  H2O(g)           -1.50     -0.00    1.50  H2O
  O2(g)            -0.70     -3.59   -2.89  O2	 Pressure   0.2 atm, phi 1.000

**For a gas, SI = log10(fugacity). Fugacity = pressure * phi / 1 atm.
  For ideal gases, phi = 1.

Reaction step 17.

Using solution 1.	
Using pure phase assemblage 1.	
Using kinetics 1.	

Kinetics 1.	

	Time step: 4.73364e+08 seconds  (Incremented time: 8.04719e+09 seconds)

	Rate name       Delta Moles Total Moles   Reactant        Coefficient

	Calcite          -1.082e-05   6.757e-04   CaCO3                     1

-------------------------------Phase assemblage--------------------------------

                                                      Moles in assemblage
Phase               SI  log IAP  log K(T, P)   Initial       Final       Delta

CO2(g)           -3.50    -4.97     -1.47    1.000e+01   1.000e+01  -1.034e-05
O2(g)            -0.70    -3.59     -2.89    1.000e+01   1.000e+01   1.929e-09

-----------------------------Solution composition------------------------------

	Elements           Molality       Moles

	C                 6.521e-04   6.521e-04
	Ca                3.243e-04   3.243e-04

----------------------------Description of solution----------------------------

                                       pH  =   8.107      Charge balance
                                       pe  =  12.515      Adjusted to redox equilibrium
      Specific Conductance (µS/cm,  25°C)  = 63
                          Density (g/cm³)  =   0.99709
                               Volume (L)  =   1.00298
                        Activity of water  =   1.000
                 Ionic strength (mol/kgw)  =   9.675e-04
                       Mass of water (kg)  =   1.000e+00
                 Total alkalinity (eq/kg)  =   6.486e-04
                       Total CO2 (mol/kg)  =   6.521e-04
                         Temperature (°C)  =  25.00
                  Electrical balance (eq)  =  -1.216e-09
 Percent error, 100*(Cat-|An|)/(Cat+|An|)  =  -0.00
                               Iterations  =  20
                                  Total H  = 1.110124e+02
                                  Total O  = 5.550836e+01

----------------------------Distribution of species----------------------------

                                               Log       Log       Log    mole V
   Species          Molality    Activity  Molality  Activity     Gamma   cm³/mol

   OH-             1.340e-06   1.293e-06    -5.873    -5.888    -0.015     -4.11
   H+              8.091e-09   7.825e-09    -8.092    -8.107    -0.015      0.00
   H2O             5.551e+01   1.000e+00     1.744    -0.000     0.000     18.07
C(-4)         0.000e+00
   CH4             0.000e+00   0.000e+00  -145.553  -145.553     0.000     35.46
C(4)          6.521e-04
   HCO3-           6.332e-04   6.116e-04    -3.198    -3.214    -0.015     24.68
   CO2             1.076e-05   1.076e-05    -4.968    -4.968     0.000     34.43
   CO3-2           4.210e-06   3.666e-06    -5.376    -5.436    -0.060     -5.27
   CaHCO3+         2.252e-06   2.176e-06    -5.647    -5.662    -0.015      9.67
   CaCO3           1.717e-06   1.717e-06    -5.765    -5.765     0.000    -14.60
   (CO2)2          2.125e-12   2.125e-12   -11.673   -11.673     0.000     68.87
Ca            3.243e-04
   Ca+2            3.203e-04   2.789e-04    -3.494    -3.555    -0.060    -18.14
   CaHCO3+         2.252e-06   2.176e-06    -5.647    -5.662    -0.015      9.67
   CaCO3           1.717e-06   1.717e-06    -5.765    -5.765     0.000    -14.60
   CaOH+           6.125e-09   5.914e-09    -8.213    -8.228    -0.015     (0)  
H(0)          0.000e+00
   H2              0.000e+00   0.000e+00   -44.394   -44.394     0.000     28.61
O(0)          5.111e-04
   O2              2.555e-04   2.556e-04    -3.593    -3.592     0.000     30.40

------------------------------Saturation indices-------------------------------

  Phase               SI** log IAP   log K(298 K,   1 atm)

  Aragonite        -0.65     -8.99   -8.34  CaCO3
  Calcite          -0.51     -8.99   -8.48  CaCO3
  CH4(g)         -142.75   -145.55   -2.80  CH4
  CO2(g)           -3.50     -4.97   -1.47  CO2	 Pressure   0.0 atm, phi 1.000
  H2(g)           -41.29    -44.39   -3.10  H2
  H2O(g)           -1.50     -0.00    1.50  H2O
  O2(g)            -0.70     -3.59   -2.89  O2	 Pressure   0.2 atm, phi 1.000

**For a gas, SI = log10(fugacity). Fugacity = pressure * phi / 1 atm.
  For ideal gases, phi = 1.

Reaction step 18.

Using solution 1.	
Using pure phase assemblage 1.	
Using kinetics 1.	

Kinetics 1.	

	Time step: 4.73364e+08 seconds  (Incremented time: 8.52055e+09 seconds)

	Rate name       Delta Moles Total Moles   Reactant        Coefficient

	Calcite          -1.012e-05   6.656e-04   CaCO3                     1

-------------------------------Phase assemblage--------------------------------

                                                      Moles in assemblage
Phase               SI  log IAP  log K(T, P)   Initial       Final       Delta

CO2(g)           -3.50    -4.97     -1.47    1.000e+01   1.000e+01  -9.655e-06
O2(g)            -0.70    -3.59     -2.89    1.000e+01   1.000e+01   1.802e-09

-----------------------------Solution composition------------------------------

	Elements           Molality       Moles

	C                 6.719e-04   6.719e-04
	Ca                3.344e-04   3.344e-04

----------------------------Description of solution----------------------------

                                       pH  =   8.119      Charge balance
                                       pe  =  12.503      Adjusted to redox equilibrium
      Specific Conductance (µS/cm,  25°C)  = 65
                          Density (g/cm³)  =   0.99709
                               Volume (L)  =   1.00298
                        Activity of water  =   1.000
                 Ionic strength (mol/kgw)  =   9.973e-04
                       Mass of water (kg)  =   1.000e+00
                 Total alkalinity (eq/kg)  =   6.688e-04
                       Total CO2 (mol/kg)  =   6.719e-04
                         Temperature (°C)  =  25.00
                  Electrical balance (eq)  =  -1.216e-09
 Percent error, 100*(Cat-|An|)/(Cat+|An|)  =  -0.00
                               Iterations  =  20
                                  Total H  = 1.110124e+02
                                  Total O  = 5.550841e+01

----------------------------Distribution of species----------------------------

                                               Log       Log       Log    mole V
   Species          Molality    Activity  Molality  Activity     Gamma   cm³/mol

   OH-             1.381e-06   1.332e-06    -5.860    -5.875    -0.016     -4.11
   H+              7.860e-09   7.598e-09    -8.105    -8.119    -0.015      0.00
   H2O             5.551e+01   1.000e+00     1.744    -0.000     0.000     18.07
C(-4)         0.000e+00
   CH4             0.000e+00   0.000e+00  -145.553  -145.553     0.000     35.46
C(4)          6.719e-04
   HCO3-           6.524e-04   6.299e-04    -3.185    -3.201    -0.015     24.68
   CO2             1.076e-05   1.076e-05    -4.968    -4.968     0.000     34.43
   CO3-2           4.474e-06   3.888e-06    -5.349    -5.410    -0.061     -5.27
   CaHCO3+         2.387e-06   2.305e-06    -5.622    -5.637    -0.015      9.67
   CaCO3           1.873e-06   1.873e-06    -5.727    -5.727     0.000    -14.60
   (CO2)2          2.125e-12   2.125e-12   -11.673   -11.673     0.000     68.87
Ca            3.344e-04
   Ca+2            3.302e-04   2.868e-04    -3.481    -3.542    -0.061    -18.14
   CaHCO3+         2.387e-06   2.305e-06    -5.622    -5.637    -0.015      9.67
   CaCO3           1.873e-06   1.873e-06    -5.727    -5.727     0.000    -14.60
   CaOH+           6.492e-09   6.265e-09    -8.188    -8.203    -0.015     (0)  
H(0)          0.000e+00
   H2              0.000e+00   0.000e+00   -44.394   -44.394     0.000     28.61
O(0)          5.111e-04
   O2              2.555e-04   2.556e-04    -3.593    -3.592     0.000     30.40

------------------------------Saturation indices-------------------------------

  Phase               SI** log IAP   log K(298 K,   1 atm)

  Aragonite        -0.62     -8.95   -8.34  CaCO3
  Calcite          -0.47     -8.95   -8.48  CaCO3
  CH4(g)         -142.75   -145.55   -2.80  CH4
[...]
                       Mass of water (kg)  =   1.000e+00
                 Total alkalinity (eq/kg)  =   9.827e-04
                       Total CO2 (mol/kg)  =   9.764e-04
                         Temperature (°C)  =  25.00
                  Electrical balance (eq)  =  -1.235e-09
 Percent error, 100*(Cat-|An|)/(Cat+|An|)  =  -0.00
                               Iterations  =   4
                                  Total H  = 1.110124e+02
                                  Total O  = 5.550917e+01

----------------------------Distribution of species----------------------------

                                               Log       Log       Log    mole V
   Species          Molality    Activity  Molality  Activity     Gamma   cm³/mol

   OH-             2.002e-06   1.918e-06    -5.699    -5.717    -0.019     -4.10
   H+              5.494e-09   5.277e-09    -8.260    -8.278    -0.017      0.00
   H2O             5.551e+01   1.000e+00     1.744    -0.000     0.000     18.07
C(-4)         0.000e+00
   CH4             0.000e+00   0.000e+00  -145.553  -145.553     0.000     35.46
C(4)          9.764e-04
   HCO3-           9.458e-04   9.069e-04    -3.024    -3.042    -0.018     24.69
   CO2             1.076e-05   1.076e-05    -4.968    -4.968     0.000     34.43
   CO3-2           9.533e-06   8.059e-06    -5.021    -5.094    -0.073     -5.25
   CaCO3           5.501e-06   5.503e-06    -5.260    -5.259     0.000    -14.60
   CaHCO3+         4.903e-06   4.703e-06    -5.309    -5.328    -0.018      9.68
   (CO2)2          2.125e-12   2.125e-12   -11.673   -11.673     0.000     68.87
Ca            4.914e-04
   Ca+2            4.809e-04   4.065e-04    -3.318    -3.391    -0.073    -18.12
   CaCO3           5.501e-06   5.503e-06    -5.260    -5.259     0.000    -14.60
   CaHCO3+         4.903e-06   4.703e-06    -5.309    -5.328    -0.018      9.68
   CaOH+           1.334e-08   1.278e-08    -7.875    -7.893    -0.019     (0)  
H(0)          0.000e+00
   H2              0.000e+00   0.000e+00   -44.394   -44.394     0.000     28.61
O(0)          5.110e-04
   O2              2.555e-04   2.556e-04    -3.593    -3.592     0.000     30.40

------------------------------Saturation indices-------------------------------

  Phase               SI** log IAP   log K(298 K,   1 atm)

  Aragonite        -0.15     -8.48   -8.34  CaCO3
  Calcite          -0.00     -8.48   -8.48  CaCO3
  CH4(g)         -142.75   -145.55   -2.80  CH4
  CO2(g)           -3.50     -4.97   -1.47  CO2	 Pressure   0.0 atm, phi 1.000
  H2(g)           -41.29    -44.39   -3.10  H2
  H2O(g)           -1.50     -0.00    1.50  H2O
  O2(g)            -0.70     -3.59   -2.89  O2	 Pressure   0.2 atm, phi 1.000

**For a gas, SI = log10(fugacity). Fugacity = pressure * phi / 1 atm.
  For ideal gases, phi = 1.

Reaction step 97.

Using solution 1.	
Using pure phase assemblage 1.	
Using kinetics 1.	

Kinetics 1.	

	Time step: 4.73364e+08 seconds  (Incremented time: 4.59163e+10 seconds)

	Rate name       Delta Moles Total Moles   Reactant        Coefficient

	Calcite          -1.072e-07   5.085e-04   CaCO3                     1

-------------------------------Phase assemblage--------------------------------

                                                      Moles in assemblage
Phase               SI  log IAP  log K(T, P)   Initial       Final       Delta

CO2(g)           -3.50    -4.97     -1.47    1.000e+01   1.000e+01  -9.940e-08
O2(g)            -0.70    -3.59     -2.89    1.000e+01   1.000e+01   1.880e-11

-----------------------------Solution composition------------------------------

	Elements           Molality       Moles

	C                 9.767e-04   9.766e-04
	Ca                4.915e-04   4.915e-04

----------------------------Description of solution----------------------------

                                       pH  =   8.278      Charge balance
                                       pe  =  12.344      Adjusted to redox equilibrium
      Specific Conductance (µS/cm,  25°C)  = 94
                          Density (g/cm³)  =   0.99711
                               Volume (L)  =   1.00298
                        Activity of water  =   1.000
                 Ionic strength (mol/kgw)  =   1.458e-03
                       Mass of water (kg)  =   1.000e+00
                 Total alkalinity (eq/kg)  =   9.829e-04
                       Total CO2 (mol/kg)  =   9.767e-04
                         Temperature (°C)  =  25.00
                  Electrical balance (eq)  =  -1.235e-09
 Percent error, 100*(Cat-|An|)/(Cat+|An|)  =  -0.00
                               Iterations  =   4
                                  Total H  = 1.110124e+02
                                  Total O  = 5.550917e+01

----------------------------Distribution of species----------------------------

                                               Log       Log       Log    mole V
   Species          Molality    Activity  Molality  Activity     Gamma   cm³/mol

   OH-             2.002e-06   1.918e-06    -5.698    -5.717    -0.019     -4.10
   H+              5.493e-09   5.276e-09    -8.260    -8.278    -0.017      0.00
   H2O             5.551e+01   1.000e+00     1.744    -0.000     0.000     18.07
C(-4)         0.000e+00
   CH4             0.000e+00   0.000e+00  -145.553  -145.553     0.000     35.46
C(4)          9.767e-04
   HCO3-           9.459e-04   9.070e-04    -3.024    -3.042    -0.018     24.69
   CO2             1.076e-05   1.076e-05    -4.968    -4.968     0.000     34.43
   CO3-2           9.537e-06   8.062e-06    -5.021    -5.094    -0.073     -5.25
   CaCO3           5.505e-06   5.506e-06    -5.259    -5.259     0.000    -14.60
   CaHCO3+         4.905e-06   4.705e-06    -5.309    -5.327    -0.018      9.68
   (CO2)2          2.125e-12   2.125e-12   -11.673   -11.673     0.000     68.87
Ca            4.915e-04
   Ca+2            4.810e-04   4.066e-04    -3.318    -3.391    -0.073    -18.12
   CaCO3           5.505e-06   5.506e-06    -5.259    -5.259     0.000    -14.60
   CaHCO3+         4.905e-06   4.705e-06    -5.309    -5.327    -0.018      9.68
   CaOH+           1.335e-08   1.279e-08    -7.875    -7.893    -0.019     (0)  
H(0)          0.000e+00
   H2              0.000e+00   0.000e+00   -44.394   -44.394     0.000     28.61
O(0)          5.110e-04
   O2              2.555e-04   2.556e-04    -3.593    -3.592     0.000     30.40

------------------------------Saturation indices-------------------------------

  Phase               SI** log IAP   log K(298 K,   1 atm)

  Aragonite        -0.15     -8.48   -8.34  CaCO3
  Calcite          -0.00     -8.48   -8.48  CaCO3
  CH4(g)         -142.75   -145.55   -2.80  CH4
  CO2(g)           -3.50     -4.97   -1.47  CO2	 Pressure   0.0 atm, phi 1.000
  H2(g)           -41.29    -44.39   -3.10  H2
  H2O(g)           -1.50     -0.00    1.50  H2O
  O2(g)            -0.70     -3.59   -2.89  O2	 Pressure   0.2 atm, phi 1.000

**For a gas, SI = log10(fugacity). Fugacity = pressure * phi / 1 atm.
  For ideal gases, phi = 1.

Reaction step 98.

Using solution 1.	
Using pure phase assemblage 1.	
Using kinetics 1.	

Kinetics 1.	

	Time step: 4.73364e+08 seconds  (Incremented time: 4.63897e+10 seconds)

	Rate name       Delta Moles Total Moles   Reactant        Coefficient

	Calcite          -1.014e-07   5.084e-04   CaCO3                     1

-------------------------------Phase assemblage--------------------------------

                                                      Moles in assemblage
Phase               SI  log IAP  log K(T, P)   Initial       Final       Delta

CO2(g)           -3.50    -4.97     -1.47    1.000e+01   1.000e+01  -9.401e-08
O2(g)            -0.70    -3.59     -2.89    1.000e+01   1.000e+01   1.779e-11

-----------------------------Solution composition------------------------------

	Elements           Molality       Moles

	C                 9.768e-04   9.768e-04
	Ca                4.916e-04   4.916e-04

----------------------------Description of solution----------------------------

                                       pH  =   8.278      Charge balance
                                       pe  =  12.344      Adjusted to redox equilibrium
      Specific Conductance (µS/cm,  25°C)  = 94
                          Density (g/cm³)  =   0.99711
                               Volume (L)  =   1.00298
                        Activity of water  =   1.000
                 Ionic strength (mol/kgw)  =   1.458e-03
                       Mass of water (kg)  =   1.000e+00
                 Total alkalinity (eq/kg)  =   9.832e-04
                       Total CO2 (mol/kg)  =   9.768e-04
                         Temperature (°C)  =  25.00
                  Electrical balance (eq)  =  -1.235e-09
 Percent error, 100*(Cat-|An|)/(Cat+|An|)  =  -0.00
                               Iterations  =   4
                                  Total H  = 1.110124e+02
                                  Total O  = 5.550917e+01

----------------------------Distribution of species----------------------------

                                               Log       Log       Log    mole V
   Species          Molality    Activity  Molality  Activity     Gamma   cm³/mol

   OH-             2.003e-06   1.919e-06    -5.698    -5.717    -0.019     -4.10
   H+              5.492e-09   5.275e-09    -8.260    -8.278    -0.017      0.00
   H2O             5.551e+01   1.000e+00     1.744    -0.000     0.000     18.07
C(-4)         0.000e+00
   CH4             0.000e+00   0.000e+00  -145.553  -145.553     0.000     35.46
C(4)          9.768e-04
   HCO3-           9.461e-04   9.072e-04    -3.024    -3.042    -0.018     24.69
   CO2             1.076e-05   1.076e-05    -4.968    -4.968     0.000     34.43
   CO3-2           9.541e-06   8.065e-06    -5.020    -5.093    -0.073     -5.25
   CaCO3           5.508e-06   5.510e-06    -5.259    -5.259     0.000    -14.60
   CaHCO3+         4.907e-06   4.707e-06    -5.309    -5.327    -0.018      9.68
   (CO2)2          2.125e-12   2.125e-12   -11.673   -11.673     0.000     68.87
Ca            4.916e-04
   Ca+2            4.811e-04   4.066e-04    -3.318    -3.391    -0.073    -18.12
   CaCO3           5.508e-06   5.510e-06    -5.259    -5.259     0.000    -14.60
   CaHCO3+         4.907e-06   4.707e-06    -5.309    -5.327    -0.018      9.68
   CaOH+           1.335e-08   1.279e-08    -7.875    -7.893    -0.019     (0)  
H(0)          0.000e+00
   H2              0.000e+00   0.000e+00   -44.394   -44.394     0.000     28.61
O(0)          5.110e-04
   O2              2.555e-04   2.556e-04    -3.593    -3.592     0.000     30.40

------------------------------Saturation indices-------------------------------

  Phase               SI** log IAP   log K(298 K,   1 atm)

  Aragonite        -0.15     -8.48   -8.34  CaCO3
  Calcite          -0.00     -8.48   -8.48  CaCO3
  CH4(g)         -142.75   -145.55   -2.80  CH4
  CO2(g)           -3.50     -4.97   -1.47  CO2	 Pressure   0.0 atm, phi 1.000
  H2(g)           -41.29    -44.39   -3.10  H2
  H2O(g)           -1.50     -0.00    1.50  H2O
  O2(g)            -0.70     -3.59   -2.89  O2	 Pressure   0.2 atm, phi 1.000

**For a gas, SI = log10(fugacity). Fugacity = pressure * phi / 1 atm.
  For ideal gases, phi = 1.

Reaction step 99.

Using solution 1.	
Using pure phase assemblage 1.	
Using kinetics 1.	

Kinetics 1.	

	Time step: 4.73364e+08 seconds  (Incremented time: 4.6863e+10 seconds)

	Rate name       Delta Moles Total Moles   Reactant        Coefficient

	Calcite          -9.591e-08   5.083e-04   CaCO3                     1

-------------------------------Phase assemblage--------------------------------

                                                      Moles in assemblage
Phase               SI  log IAP  log K(T, P)   Initial       Final       Delta

CO2(g)           -3.50    -4.97     -1.47    1.000e+01   1.000e+01  -8.892e-08
O2(g)            -0.70    -3.59     -2.89    1.000e+01   1.000e+01   1.681e-11

-----------------------------Solution composition------------------------------

	Elements           Molality       Moles

	C                 9.770e-04   9.770e-04
	Ca                4.917e-04   4.917e-04

----------------------------Description of solution----------------------------

                                       pH  =   8.278      Charge balance
                                       pe  =  12.344      Adjusted to redox equilibrium
      Specific Conductance (µS/cm,  25°C)  = 94
                          Density (g/cm³)  =   0.99711
                               Volume (L)  =   1.00298
                        Activity of water  =   1.000
                 Ionic strength (mol/kgw)  =   1.458e-03
                       Mass of water (kg)  =   1.000e+00
                 Total alkalinity (eq/kg)  =   9.833e-04
                       Total CO2 (mol/kg)  =   9.770e-04
                         Temperature (°C)  =  25.00
                  Electrical balance (eq)  =  -1.235e-09
 Percent error, 100*(Cat-|An|)/(Cat+|An|)  =  -0.00
                               Iterations  =   4
                                  Total H  = 1.110124e+02
                                  Total O  = 5.550917e+01

----------------------------Distribution of species----------------------------

                                               Log       Log       Log    mole V
   Species          Molality    Activity  Molality  Activity     Gamma   cm³/mol

   OH-             2.003e-06   1.919e-06    -5.698    -5.717    -0.019     -4.10
   H+              5.491e-09   5.274e-09    -8.260    -8.278    -0.018      0.00
   H2O             5.551e+01   1.000e+00     1.744    -0.000     0.000     18.07
C(-4)         0.000e+00
   CH4             0.000e+00   0.000e+00  -145.553  -145.553     0.000     35.46
C(4)          9.770e-04
   HCO3-           9.463e-04   9.074e-04    -3.024    -3.042    -0.018     24.69
   CO2             1.076e-05   1.076e-05    -4.968    -4.968     0.000     34.43
   CO3-2           9.544e-06   8.068e-06    -5.020    -5.093    -0.073     -5.25
   CaCO3           5.511e-06   5.513e-06    -5.259    -5.259     0.000    -14.60
   CaHCO3+         4.909e-06   4.709e-06    -5.309    -5.327    -0.018      9.68
   (CO2)2          2.125e-12   2.125e-12   -11.673   -11.673     0.000     68.87
Ca            4.917e-04
   Ca+2            4.812e-04   4.067e-04    -3.318    -3.391    -0.073    -18.12
   CaCO3           5.511e-06   5.513e-06    -5.259    -5.259     0.000    -14.60
   CaHCO3+         4.909e-06   4.709e-06    -5.309    -5.327    -0.018      9.68
   CaOH+           1.336e-08   1.280e-08    -7.874    -7.893    -0.019     (0)  
H(0)          0.000e+00
   H2              0.000e+00   0.000e+00   -44.394   -44.394     0.000     28.61
O(0)          5.110e-04
   O2              2.555e-04   2.556e-04    -3.593    -3.592     0.000     30.40

------------------------------Saturation indices-------------------------------

  Phase               SI** log IAP   log K(298 K,   1 atm)

  Aragonite        -0.15     -8.48   -8.34  CaCO3
  Calcite          -0.00     -8.48   -8.48  CaCO3
  CH4(g)         -142.75   -145.55   -2.80  CH4
  CO2(g)           -3.50     -4.97   -1.47  CO2	 Pressure   0.0 atm, phi 1.000
  H2(g)           -41.29    -44.39   -3.10  H2
  H2O(g)           -1.50     -0.00    1.50  H2O
  O2(g)            -0.70     -3.59   -2.89  O2	 Pressure   0.2 atm, phi 1.000

**For a gas, SI = log10(fugacity). Fugacity = pressure * phi / 1 atm.
  For ideal gases, phi = 1.

Reaction step 100.

Using solution 1.	
Using pure phase assemblage 1.	
Using kinetics 1.	

Kinetics 1.	

	Time step: 4.73364e+08 seconds  (Incremented time: 4.73364e+10 seconds)

	Rate name       Delta Moles Total Moles   Reactant        Coefficient

	Calcite          -9.072e-08   5.082e-04   CaCO3                     1

-------------------------------Phase assemblage--------------------------------

                                                      Moles in assemblage
Phase               SI  log IAP  log K(T, P)   Initial       Final       Delta

CO2(g)           -3.50    -4.97     -1.47    1.000e+01   1.000e+01  -8.411e-08
O2(g)            -0.70    -3.59     -2.89    1.000e+01   1.000e+01   1.591e-11

-----------------------------Solution composition------------------------------

	Elements           Molality       Moles

	C                 9.772e-04   9.772e-04
	Ca                4.918e-04   4.918e-04

----------------------------Description of solution----------------------------

                                       pH  =   8.278      Charge balance
                                       pe  =  12.344      Adjusted to redox equilibrium
      Specific Conductance (µS/cm,  25°C)  = 94
                          Density (g/cm³)  =   0.99711
                               Volume (L)  =   1.00298
                        Activity of water  =   1.000
                 Ionic strength (mol/kgw)  =   1.458e-03
                       Mass of water (kg)  =   1.000e+00
                 Total alkalinity (eq/kg)  =   9.835e-04
                       Total CO2 (mol/kg)  =   9.772e-04
                         Temperature (°C)  =  25.00
                  Electrical balance (eq)  =  -1.235e-09
 Percent error, 100*(Cat-|An|)/(Cat+|An|)  =  -0.00
                               Iterations  =   4
                                  Total H  = 1.110124e+02
                                  Total O  = 5.550917e+01

----------------------------Distribution of species----------------------------

                                               Log       Log       Log    mole V
   Species          Molality    Activity  Molality  Activity     Gamma   cm³/mol

   OH-             2.004e-06   1.919e-06    -5.698    -5.717    -0.019     -4.10
   H+              5.490e-09   5.273e-09    -8.260    -8.278    -0.018      0.00
   H2O             5.551e+01   1.000e+00     1.744    -0.000     0.000     18.07
C(-4)         0.000e+00
   CH4             0.000e+00   0.000e+00  -145.553  -145.553     0.000     35.46
C(4)          9.772e-04
   HCO3-           9.465e-04   9.075e-04    -3.024    -3.042    -0.018     24.69
   CO2             1.076e-05   1.076e-05    -4.968    -4.968     0.000     34.43
   CO3-2           9.548e-06   8.071e-06    -5.020    -5.093    -0.073     -5.25
   CaCO3           5.514e-06   5.515e-06    -5.259    -5.258     0.000    -14.60
   CaHCO3+         4.911e-06   4.710e-06    -5.309    -5.327    -0.018      9.68
   (CO2)2          2.125e-12   2.125e-12   -11.673   -11.673     0.000     68.87
Ca            4.918e-04
   Ca+2            4.813e-04   4.068e-04    -3.318    -3.391    -0.073    -18.12
   CaCO3           5.514e-06   5.515e-06    -5.259    -5.258     0.000    -14.60
   CaHCO3+         4.911e-06   4.710e-06    -5.309    -5.327    -0.018      9.68
   CaOH+           1.336e-08   1.280e-08    -7.874    -7.893    -0.019     (0)  
H(0)          0.000e+00
   H2              0.000e+00   0.000e+00   -44.394   -44.394     0.000     28.61
O(0)          5.110e-04
   O2              2.555e-04   2.556e-04    -3.593    -3.592     0.000     30.40

------------------------------Saturation indices-------------------------------

  Phase               SI** log IAP   log K(298 K,   1 atm)

  Aragonite        -0.15     -8.48   -8.34  CaCO3
  Calcite          -0.00     -8.48   -8.48  CaCO3
  CH4(g)         -142.75   -145.55   -2.80  CH4
  CO2(g)           -3.50     -4.97   -1.47  CO2	 Pressure   0.0 atm, phi 1.000
  H2(g)           -41.29    -44.39   -3.10  H2
  H2O(g)           -1.50     -0.00    1.50  H2O
  O2(g)            -0.70     -3.59   -2.89  O2	 Pressure   0.2 atm, phi 1.000

**For a gas, SI = log10(fugacity). Fugacity = pressure * phi / 1 atm.
  For ideal gases, phi = 1.

------------------
End of simulation.
------------------

------------------------------------
Reading input data for simulation 2.
------------------------------------

--------------------------------
End of Run after 16.033 Seconds.
--------------------------------

