   Input file: C:\Users\Eirik\Desktop\phreeqc-3.6.2-15100-x64\bin\e1.pqi.out
  Output file: C:\Users\Eirik\Desktop\phreeqc-3.6.2-15100-x64\bin\e1.pqi.out.out
Database file: C:\Users\Eirik\Desktop\phreeqc-3.6.2-15100-x64\database\phreeqc.dat

------------------
Reading data base.
------------------

	SOLUTION_MASTER_SPECIES
	SOLUTION_SPECIES
	PHASES
	EXCHANGE_MASTER_SPECIES
	EXCHANGE_SPECIES
	SURFACE_MASTER_SPECIES
	SURFACE_SPECIES
	RATES
	END
------------------------------------
Reading input data for simulation 1.
------------------------------------

	WARNING: Database file from DATABASE keyword is used
WARNING: Unknown input, no keyword has been specified.
	 command line argument ignored.
WARNING: Unknown input, no keyword has been specified.
	   Input file: C:\Users\Eirik\Desktop\phreeqc-3.6.2-15100-x64\bin\e1.pqi
WARNING: Unknown input, no keyword has been specified.
	  Output file: C:\Users\Eirik\Desktop\phreeqc-3.6.2-15100-x64\bin\e1.pqi.out
WARNING: Unknown input, no keyword has been specified.
	Database file: C:\Users\Eirik\Desktop\phreeqc-3.6.2-15100-x64\database\WATEQ4F.dat
	------------------
WARNING: Unknown input, no keyword has been specified.
	Reading data base.
WARNING: 	Reading data base.

	------------------
WARNING: 	------------------

		SOLUTION_MASTER_SPECIES
		SOLUTION_SPECIES
		PHASES
		EXCHANGE_MASTER_SPECIES
		EXCHANGE_SPECIES
		SURFACE_MASTER_SPECIES
		SURFACE_SPECIES
		RATES
		END
------------------
End of simulation.
------------------

------------------------------------
Reading input data for simulation 2.
------------------------------------

	------------------------------------
WARNING: Unknown input, no keyword has been specified.
	Reading input data for simulation 1.
WARNING: Unknown input, no keyword has been specified.
	------------------------------------
WARNING: Unknown input, no keyword has been specified.
		DATABASE C:\Program Files (x86)\USGS\Phreeqc Interactive 3.6.2-15100\database\WATEQ4F.dat
ERROR: DATABASE must be the first keyword in the input file.
		SOLUTION 1
		 pH 2.3
		 Na 23.8
		 K 0.1
		 Ca 11.6
		 C 1.7e-4
		 Cl 13.0 charge
		 P 0.08
		 S(6) 52.8
		 Al 6.5
		 Cd 0.01
		 Fe(3) 10.7
		 Fe(2) 0.27
		 U(6) 0.18
		 Zn 1.5
		 temp 10
		SURFACE 1
		 Hfo_w 0.2e-3 600 88e-3
		 Hfo_s 0.5e-5
		 equilibrate 1
		EXCHANGE_SPECIES
		 H+ + X- = HX
		 log_k 1.0
		 gamma 9.0 0.0
		REACTION 1
		 ZnNO3 1
		 1e-6
		REACTION 1
			NaOh 0.105 
		    1 in 50
		USER_graph
		 -headings pH Zn_tot=1(uM)
		 -chart_title "Zn sorption on 88 mg Ferrihydrite"
		 -axis_titles "pH"  "% sorbed"
		  -axis_scale x_axis 4 14 2 1
		  -connect_simulations true
		 -initial_solutions false
		 -start
		 10 graph_x -la("H+")
		 20 graph_y (1e-6 - tot("Zn")) / 1e-6 * 100
		 -end
		SELECTED_OUTPUT
		 reset false
		 file Zn_sorbed.out
		USER_PUNCH
		10 if step_no = 0 then goto 100
		20 sc$ = chr$(59)
		30 for i = 12.5 to 4 step -0.5
		40   punch "SOLUTION 1" + sc$ + " pH " + str$(i) + sc$ + " Na 100" + sc$ + " N(5) 100 charge" + eol$
		50   punch "SURFACE 1"  + sc$ + " Hfo_w 0.2e-3 600 88e-3" + sc$ + " Hfo_s 0.5e-5" + sc$ + "  -equil 1" + eol$
		60   punch "REACTION 1" + sc$ + "ZnNO3 1" + sc$ + "1e-6" + eol$
		70   punch "END" + eol$
		80 next i
		100 end
		END
WARNING: Could not find element in database, U(6).
	Concentration is set to zero.
ERROR: Calculations terminating due to input errors.
Stopping.
