WARNING: Database file from DATABASE keyword is used; command line argument ignored.
   Input file: C:\Users\Eirik\Desktop\phreeqc-3.6.2-15100-x64\bin\a.pqi
  Output file: C:\Users\Eirik\Desktop\phreeqc-3.6.2-15100-x64\bin\a.pqi.out
Database file: C:\Users\Eirik\Desktop\phreeqc-3.6.2-15100-x64\database\phreeqc.dat

------------------
Reading data base.
------------------

	SOLUTION_MASTER_SPECIES
	SOLUTION_SPECIES
	PHASES
	EXCHANGE_MASTER_SPECIES
	EXCHANGE_SPECIES
	SURFACE_MASTER_SPECIES
	SURFACE_SPECIES
	RATES
	END
------------------------------------
Reading input data for simulation 1.
------------------------------------

	DATABASE C:\Users\Eirik\Desktop\phreeqc-3.6.2-15100-x64\database\phreeqc.dat
	SOLUTION 1-16	#Column is filled with 1 mmol of NaNO3
		Na	1
		N(5)	1
	EXCHANGE 1-16	#Column is filled with sand CEC = 1.1 meq/L
		X	1.1e-3
		equilibrate 1
	END
-------------------------------------------
Beginning of initial solution calculations.
-------------------------------------------

Initial solution 1.	

-----------------------------Solution composition------------------------------

	Elements           Molality       Moles

	N(5)              1.000e-03   1.000e-03
	Na                1.000e-03   1.000e-03

----------------------------Description of solution----------------------------

                                       pH  =   7.000    
                                       pe  =   4.000    
      Specific Conductance (µS/cm,  25°C)  = 118
                          Density (g/cm³)  =   0.99710
                               Volume (L)  =   1.00299
                        Activity of water  =   1.000
                 Ionic strength (mol/kgw)  =   1.000e-03
                       Mass of water (kg)  =   1.000e+00
                 Total alkalinity (eq/kg)  =   1.451e-09
                         Temperature (°C)  =  25.00
                  Electrical balance (eq)  =  -1.451e-09
 Percent error, 100*(Cat-|An|)/(Cat+|An|)  =  -0.00
                               Iterations  =   3
                                  Total H  = 1.110124e+02
                                  Total O  = 5.550922e+01

----------------------------Distribution of species----------------------------

                                               Log       Log       Log    mole V
   Species          Molality    Activity  Molality  Activity     Gamma   cm³/mol

   OH-             1.049e-07   1.012e-07    -6.979    -6.995    -0.016     -4.11
   H+              1.035e-07   1.000e-07    -6.985    -7.000    -0.015      0.00
   H2O             5.551e+01   1.000e+00     1.744    -0.000     0.000     18.07
H(0)          1.416e-25
   H2              7.078e-26   7.079e-26   -25.150   -25.150     0.000     28.61
N(5)          1.000e-03
   NO3-            1.000e-03   9.646e-04    -3.000    -3.016    -0.016     29.49
Na            1.000e-03
   Na+             1.000e-03   9.652e-04    -3.000    -3.015    -0.015     -1.48
   NaOH            9.767e-21   9.769e-21   -20.010   -20.010     0.000     (0)  
O(0)          0.000e+00
   O2              0.000e+00   0.000e+00   -42.080   -42.080     0.000     30.40

------------------------------Saturation indices-------------------------------

  Phase               SI** log IAP   log K(298 K,   1 atm)

  H2(g)           -22.05    -25.15   -3.10  H2
  H2O(g)           -1.50     -0.00    1.50  H2O
  O2(g)           -39.19    -42.08   -2.89  O2

**For a gas, SI = log10(fugacity). Fugacity = pressure * phi / 1 atm.
  For ideal gases, phi = 1.

-------------------------------------------------------
Beginning of initial exchange-composition calculations.
-------------------------------------------------------

Exchange 1.	

X                1.100e-03 mol

	                               Equiv-    Equivalent      Log 
	Species             Moles      alents      Fraction     Gamma

	NaX               1.100e-03   1.100e-03   1.000e+00    -0.015

-----------------------------------------
Beginning of batch-reaction calculations.
-----------------------------------------

Reaction step 1.

Using solution 1.	
Using exchange 1.	Exchange assemblage after simulation 1.

-----------------------------Exchange composition------------------------------

X                1.100e-03 mol

	                               Equiv-    Equivalent      Log 
	Species             Moles      alents      Fraction     Gamma

	NaX               1.100e-03   1.100e-03   1.000e+00    -0.015
	NH4X              2.429e-54   2.429e-54   2.208e-51     0.000

-----------------------------Solution composition------------------------------

	Elements           Molality       Moles

	N                 1.000e-03   1.000e-03
	Na                1.000e-03   1.000e-03

----------------------------Description of solution----------------------------

                                       pH  =   7.019      Charge balance
                                       pe  =  12.516      Adjusted to redox equilibrium
      Specific Conductance (µS/cm,  25°C)  = 118
                          Density (g/cm³)  =   0.99710
                               Volume (L)  =   1.00299
                        Activity of water  =   1.000
                 Ionic strength (mol/kgw)  =   1.000e-03
                       Mass of water (kg)  =   1.000e+00
                 Total alkalinity (eq/kg)  =   1.062e-08
                         Temperature (°C)  =  25.00
                  Electrical balance (eq)  =  -1.451e-09
 Percent error, 100*(Cat-|An|)/(Cat+|An|)  =  -0.00
                               Iterations  =  18
                                  Total H  = 1.110124e+02
                                  Total O  = 5.550922e+01

----------------------------Distribution of species----------------------------

                                               Log       Log       Log    mole V
   Species          Molality    Activity  Molality  Activity     Gamma   cm³/mol

   OH-             1.096e-07   1.058e-07    -6.960    -6.976    -0.016     -4.11
   H+              9.900e-08   9.569e-08    -7.004    -7.019    -0.015      0.00
   H2O             5.551e+01   1.000e+00     1.744    -0.000     0.000     18.07
H(0)          0.000e+00
   H2              0.000e+00   0.000e+00   -42.220   -42.220     0.000     28.61
N(-3)         0.000e+00
   NH4+            0.000e+00   0.000e+00   -54.240   -54.256    -0.016     17.96
   NH3             0.000e+00   0.000e+00   -56.481   -56.481     0.000     24.42
N(0)          9.174e-09
   N2              4.587e-09   4.588e-09    -8.338    -8.338     0.000     29.29
N(3)          3.164e-14
   NO2-            3.164e-14   3.052e-14   -13.500   -13.515    -0.016     24.97
N(5)          1.000e-03
   NO3-            1.000e-03   9.646e-04    -3.000    -3.016    -0.016     29.49
Na            1.000e-03
   Na+             1.000e-03   9.652e-04    -3.000    -3.015    -0.015     -1.48
   NaOH            1.021e-20   1.021e-20   -19.991   -19.991     0.000     (0)  
O(0)          2.293e-08
   O2              1.147e-08   1.147e-08    -7.941    -7.940     0.000     30.40

------------------------------Saturation indices-------------------------------

  Phase               SI** log IAP   log K(298 K,   1 atm)

  H2(g)           -39.12    -42.22   -3.10  H2
  H2O(g)           -1.50     -0.00    1.50  H2O
  N2(g)            -5.16     -8.34   -3.18  N2
  NH3(g)          -58.28    -56.48    1.80  NH3
  O2(g)            -5.05     -7.94   -2.89  O2

**For a gas, SI = log10(fugacity). Fugacity = pressure * phi / 1 atm.
  For ideal gases, phi = 1.

------------------
End of simulation.
------------------

------------------------------------
Reading input data for simulation 2.
------------------------------------

	SOLUTION 0		#Solution with 0.6 mmol CaCl2
		Ca	0.6
		Cl	1.2
	TRANSPORT
		cells			16
		length			0.005		    # column length = 10*8e-3 meters
		shifts			40
		time_step		      630 	    # time_step = 3.15e7 (around 100 years)
		flow_direction 		forward
		boundary_conditions 	flux flux # diffusion transport
		diffusion_coefficient 	0.3e-9
	USER_GRAPH
WARNING: Cell-lengths were read for 1 cells. Last value is used till cell 16.
WARNING: No dispersivities were read; disp = 0 assumed.
		-headings PV Na Cl Ca
		-plot_concentration_vs distance
		-axis_titles "distance" "mmol/L"
		10 graph_x dist                                        	
		20 graph_y tot("Na")*1e3, tot("Cl")*1e3, tot("Ca")*1e3
	END
-------------------------------------------
Beginning of initial solution calculations.
-------------------------------------------

Initial solution 0.	

-----------------------------Solution composition------------------------------

	Elements           Molality       Moles

	Ca                6.000e-04   6.000e-04
	Cl                1.200e-03   1.200e-03

----------------------------Description of solution----------------------------

                                       pH  =   7.000    
                                       pe  =   4.000    
      Specific Conductance (µS/cm,  25°C)  = 152
                          Density (g/cm³)  =   0.99710
                               Volume (L)  =   1.00298
                        Activity of water  =   1.000
                 Ionic strength (mol/kgw)  =   1.800e-03
                       Mass of water (kg)  =   1.000e+00
                 Total alkalinity (eq/kg)  =   2.477e-09
                         Temperature (°C)  =  25.00
                  Electrical balance (eq)  =  -2.477e-09
 Percent error, 100*(Cat-|An|)/(Cat+|An|)  =  -0.00
                               Iterations  =   4
                                  Total H  = 1.110124e+02
                                  Total O  = 5.550622e+01

----------------------------Distribution of species----------------------------

                                               Log       Log       Log    mole V
   Species          Molality    Activity  Molality  Activity     Gamma   cm³/mol

   OH-             1.061e-07   1.012e-07    -6.974    -6.995    -0.021     -4.10
   H+              1.045e-07   1.000e-07    -6.981    -7.000    -0.019      0.00
   H2O             5.551e+01   1.000e+00     1.744    -0.000     0.000     18.07
Ca            6.000e-04
   Ca+2            6.000e-04   4.983e-04    -3.222    -3.302    -0.081    -18.10
   CaOH+           8.670e-10   8.270e-10    -9.062    -9.082    -0.020     (0)  
Cl            1.200e-03
   Cl-             1.200e-03   1.144e-03    -2.921    -2.941    -0.021     18.08
H(0)          1.415e-25
   H2              7.077e-26   7.079e-26   -25.150   -25.150     0.000     28.61
O(0)          0.000e+00
   O2              0.000e+00   0.000e+00   -42.080   -42.080     0.000     30.40

------------------------------Saturation indices-------------------------------

  Phase               SI** log IAP   log K(298 K,   1 atm)

  H2(g)           -22.05    -25.15   -3.10  H2
  H2O(g)           -1.50     -0.00    1.50  H2O
  O2(g)           -39.19    -42.08   -2.89  O2

**For a gas, SI = log10(fugacity). Fugacity = pressure * phi / 1 atm.
  For ideal gases, phi = 1.

------------------------------------
Beginning of transport calculations.
------------------------------------

-------------------------------
Equilibrating initial solutions
-------------------------------

Using solution 0.	

-----------------------------Solution composition------------------------------

	Elements           Molality       Moles

	Ca                6.000e-04   6.000e-04
	Cl                1.200e-03   1.200e-03

----------------------------Description of solution----------------------------

                                       pH  =   7.000      Charge balance
                                       pe  =   4.000      Adjusted to redox equilibrium
      Specific Conductance (µS/cm,  25°C)  = 152
                          Density (g/cm³)  =   0.99710
                               Volume (L)  =   1.00298
                        Activity of water  =   1.000
                 Ionic strength (mol/kgw)  =   1.800e-03
                       Mass of water (kg)  =   1.000e+00
                 Total alkalinity (eq/kg)  =   2.477e-09
                         Temperature (°C)  =  25.00
                  Electrical balance (eq)  =  -2.477e-09
 Percent error, 100*(Cat-|An|)/(Cat+|An|)  =  -0.00
                               Iterations  =   0 (4 overall)
                                  Total H  = 1.110124e+02
                                  Total O  = 5.550622e+01

----------------------------Distribution of species----------------------------

                                               Log       Log       Log    mole V
   Species          Molality    Activity  Molality  Activity     Gamma   cm³/mol

   OH-             1.061e-07   1.012e-07    -6.974    -6.995    -0.021     -4.10
   H+              1.045e-07   1.000e-07    -6.981    -7.000    -0.019      0.00
   H2O             5.551e+01   1.000e+00     1.744    -0.000     0.000     18.07
Ca            6.000e-04
   Ca+2            6.000e-04   4.983e-04    -3.222    -3.302    -0.081    -18.10
   CaOH+           8.670e-10   8.270e-10    -9.062    -9.082    -0.020     (0)  
Cl            1.200e-03
   Cl-             1.200e-03   1.144e-03    -2.921    -2.941    -0.021     18.08
H(0)          1.415e-25
   H2              7.077e-26   7.079e-26   -25.150   -25.150     0.000     28.61
O(0)          0.000e+00
   O2              0.000e+00   0.000e+00   -42.080   -42.080     0.000     30.40

------------------------------Saturation indices-------------------------------

  Phase               SI** log IAP   log K(298 K,   1 atm)

  H2(g)           -22.05    -25.15   -3.10  H2
  H2O(g)           -1.50     -0.00    1.50  H2O
  O2(g)           -39.19    -42.08   -2.89  O2

**For a gas, SI = log10(fugacity). Fugacity = pressure * phi / 1 atm.
  For ideal gases, phi = 1.

Using solution 1.	
Using exchange 1.	Exchange assemblage after simulation 1.

-----------------------------Exchange composition------------------------------

X                1.100e-03 mol

	                               Equiv-    Equivalent      Log 
	Species             Moles      alents      Fraction     Gamma

	NaX               1.100e-03   1.100e-03   1.000e+00    -0.015
	NH4X              2.429e-54   2.429e-54   2.208e-51     0.000

-----------------------------Solution composition------------------------------

	Elements           Molality       Moles

	N                 1.000e-03   1.000e-03
	Na                1.000e-03   1.000e-03

----------------------------Description of solution----------------------------

                                       pH  =   7.019      Charge balance
                                       pe  =  12.516      Adjusted to redox equilibrium
      Specific Conductance (µS/cm,  25°C)  = 118
                          Density (g/cm³)  =   0.99710
                               Volume (L)  =   1.00299
                        Activity of water  =   1.000
                 Ionic strength (mol/kgw)  =   1.000e-03
                       Mass of water (kg)  =   1.000e+00
                 Total alkalinity (eq/kg)  =   1.062e-08
                         Temperature (°C)  =  25.00
                  Electrical balance (eq)  =  -1.451e-09
 Percent error, 100*(Cat-|An|)/(Cat+|An|)  =  -0.00
                               Iterations  =  18 (22 overall)
                                  Total H  = 1.110124e+02
                                  Total O  = 5.550922e+01

----------------------------Distribution of species----------------------------

                                               Log       Log       Log    mole V
   Species          Molality    Activity  Molality  Activity     Gamma   cm³/mol

   OH-             1.096e-07   1.058e-07    -6.960    -6.976    -0.016     -4.11
   H+              9.900e-08   9.569e-08    -7.004    -7.019    -0.015      0.00
   H2O             5.551e+01   1.000e+00     1.744    -0.000     0.000     18.07
H(0)          0.000e+00
   H2              0.000e+00   0.000e+00   -42.220   -42.220     0.000     28.61
N(-3)         0.000e+00
   NH4+            0.000e+00   0.000e+00   -54.240   -54.256    -0.016     17.96
   NH3             0.000e+00   0.000e+00   -56.481   -56.481     0.000     24.42
N(0)          9.174e-09
   N2              4.587e-09   4.588e-09    -8.338    -8.338     0.000     29.29
N(3)          3.164e-14
   NO2-            3.164e-14   3.052e-14   -13.500   -13.515    -0.016     24.97
N(5)          1.000e-03
   NO3-            1.000e-03   9.646e-04    -3.000    -3.016    -0.016     29.49
Na            1.000e-03
   Na+             1.000e-03   9.652e-04    -3.000    -3.015    -0.015     -1.48
   NaOH            1.021e-20   1.021e-20   -19.991   -19.991     0.000     (0)  
O(0)          2.293e-08
   O2              1.147e-08   1.147e-08    -7.941    -7.940     0.000     30.40

------------------------------Saturation indices-------------------------------

  Phase               SI** log IAP   log K(298 K,   1 atm)

  H2(g)           -39.12    -42.22   -3.10  H2
  H2O(g)           -1.50     -0.00    1.50  H2O
  N2(g)            -5.16     -8.34   -3.18  N2
  NH3(g)          -58.28    -56.48    1.80  NH3
  O2(g)            -5.05     -7.94   -2.89  O2

**For a gas, SI = log10(fugacity). Fugacity = pressure * phi / 1 atm.
  For ideal gases, phi = 1.

Using solution 2.	
Using exchange 2.	Exchange assemblage after simulation 1.

-----------------------------Exchange composition------------------------------

X                1.100e-03 mol

	                               Equiv-    Equivalent      Log 
	Species             Moles      alents      Fraction     Gamma

	NaX               1.100e-03   1.100e-03   1.000e+00    -0.015
	NH4X              2.429e-54   2.429e-54   2.208e-51     0.000

-----------------------------Solution composition------------------------------

	Elements           Molality       Moles

	N                 1.000e-03   1.000e-03
	Na                1.000e-03   1.000e-03

----------------------------Description of solution----------------------------

                                       pH  =   7.019      Charge balance
                                       pe  =  12.516      Adjusted to redox equilibrium
      Specific Conductance (µS/cm,  25°C)  = 118
                          Density (g/cm³)  =   0.99710
                               Volume (L)  =   1.00299
                        Activity of water  =   1.000
                 Ionic strength (mol/kgw)  =   1.000e-03
                       Mass of water (kg)  =   1.000e+00
                 Total alkalinity (eq/kg)  =   1.062e-08
                         Temperature (°C)  =  25.00
                  Electrical balance (eq)  =  -1.451e-09
 Percent error, 100*(Cat-|An|)/(Cat+|An|)  =  -0.00
                               Iterations  =  23 (45 overall)
                                  Total H  = 1.110124e+02
                                  Total O  = 5.550922e+01

----------------------------Distribution of species----------------------------

                                               Log       Log       Log    mole V
   Species          Molality    Activity  Molality  Activity     Gamma   cm³/mol

   OH-             1.096e-07   1.058e-07    -6.960    -6.976    -0.016     -4.11
   H+              9.900e-08   9.569e-08    -7.004    -7.019    -0.015      0.00
   H2O             5.551e+01   1.000e+00     1.744    -0.000     0.000     18.07
H(0)          0.000e+00
   H2              0.000e+00   0.000e+00   -42.220   -42.220     0.000     28.61
N(-3)         0.000e+00
   NH4+            0.000e+00   0.000e+00   -54.240   -54.256    -0.016     17.96
   NH3             0.000e+00   0.000e+00   -56.481   -56.481     0.000     24.42
N(0)          9.174e-09
   N2              4.587e-09   4.588e-09    -8.338    -8.338     0.000     29.29
N(3)          3.164e-14
   NO2-            3.164e-14   3.052e-14   -13.500   -13.515    -0.016     24.97
N(5)          1.000e-03
   NO3-            1.000e-03   9.646e-04    -3.000    -3.016    -0.016     29.49
Na            1.000e-03
   Na+             1.000e-03   9.652e-04    -3.000    -3.015    -0.015     -1.48
   NaOH            1.021e-20   1.021e-20   -19.991   -19.991     0.000     (0)  
O(0)          2.293e-08
   O2              1.147e-08   1.147e-08    -7.941    -7.940     0.000     30.40

------------------------------Saturation indices-------------------------------

  Phase               SI** log IAP   log K(298 K,   1 atm)

  H2(g)           -39.12    -42.22   -3.10  H2
  H2O(g)           -1.50     -0.00    1.50  H2O
  N2(g)            -5.16     -8.34   -3.18  N2
  NH3(g)          -58.28    -56.48    1.80  NH3
  O2(g)            -5.05     -7.94   -2.89  O2

**For a gas, SI = log10(fugacity). Fugacity = pressure * phi / 1 atm.
  For ideal gases, phi = 1.

Using solution 3.	
Using exchange 3.	Exchange assemblage after simulation 1.

-----------------------------Exchange composition------------------------------

X                1.100e-03 mol

	                               Equiv-    Equivalent      Log 
	Species             Moles      alents      Fraction     Gamma

	NaX               1.100e-03   1.100e-03   1.000e+00    -0.015
	NH4X              2.429e-54   2.429e-54   2.208e-51     0.000

-----------------------------Solution composition------------------------------

	Elements           Molality       Moles

	N                 1.000e-03   1.000e-03
	Na                1.000e-03   1.000e-03

----------------------------Description of solution----------------------------

                                       pH  =   7.019      Charge balance
                                       pe  =  12.516      Adjusted to redox equilibrium
      Specific Conductance (µS/cm,  25°C)  = 118
                          Density (g/cm³)  =   0.99710
                               Volume (L)  =   1.00299
                        Activity of water  =   1.000
                 Ionic strength (mol/kgw)  =   1.000e-03
                       Mass of water (kg)  =   1.000e+00
                 Total alkalinity (eq/kg)  =   1.062e-08
                         Temperature (°C)  =  25.00
                  Electrical balance (eq)  =  -1.451e-09
 Percent error, 100*(Cat-|An|)/(Cat+|An|)  =  -0.00
                               Iterations  =  23 (68 overall)
                                  Total H  = 1.110124e+02
                                  Total O  = 5.550922e+01

----------------------------Distribution of species----------------------------

                                               Log       Log       Log    mole V
   Species          Molality    Activity  Molality  Activity     Gamma   cm³/mol

   OH-             1.096e-07   1.058e-07    -6.960    -6.976    -0.016     -4.11
   H+              9.900e-08   9.569e-08    -7.004    -7.019    -0.015      0.00
   H2O             5.551e+01   1.000e+00     1.744    -0.000     0.000     18.07
H(0)          0.000e+00
   H2              0.000e+00   0.000e+00   -42.220   -42.220     0.000     28.61
N(-3)         0.000e+00
   NH4+            0.000e+00   0.000e+00   -54.240   -54.256    -0.016     17.96
   NH3             0.000e+00   0.000e+00   -56.481   -56.481     0.000     24.42
N(0)          9.174e-09
   N2              4.587e-09   4.588e-09    -8.338    -8.338     0.000     29.29
N(3)          3.164e-14
   NO2-            3.164e-14   3.052e-14   -13.500   -13.515    -0.016     24.97
N(5)          1.000e-03
   NO3-            1.000e-03   9.646e-04    -3.000    -3.016    -0.016     29.49
Na            1.000e-03
   Na+             1.000e-03   9.652e-04    -3.000    -3.015    -0.015     -1.48
   NaOH            1.021e-20   1.021e-20   -19.991   -19.991     0.000     (0)  
O(0)          2.293e-08
   O2              1.147e-08   1.147e-08    -7.941    -7.940     0.000     30.40

------------------------------Saturation indices-------------------------------

  Phase               SI** log IAP   log K(298 K,   1 atm)

  H2(g)           -39.12    -42.22   -3.10  H2
  H2O(g)           -1.50     -0.00    1.50  H2O
  N2(g)            -5.16     -8.34   -3.18  N2
  NH3(g)          -58.28    -56.48    1.80  NH3
  O2(g)            -5.05     -7.94   -2.89  O2

**For a gas, SI = log10(fugacity). Fugacity = pressure * phi / 1 atm.
  For ideal gases, phi = 1.

Using solution 4.	
Using exchange 4.	Exchange assemblage after simulation 1.

-----------------------------Exchange composition------------------------------

X                1.100e-03 mol

	                               Equiv-    Equivalent      Log 
	Species             Moles      alents      Fraction     Gamma

	NaX               1.100e-03   1.100e-03   1.000e+00    -0.015
	NH4X              2.429e-54   2.429e-54   2.208e-51     0.000

-----------------------------Solution composition------------------------------

	Elements           Molality       Moles

	N                 1.000e-03   1.000e-03
	Na                1.000e-03   1.000e-03

----------------------------Description of solution----------------------------

                                       pH  =   7.019      Charge balance
                                       pe  =  12.516      Adjusted to redox equilibrium
      Specific Conductance (µS/cm,  25°C)  = 118
                          Density (g/cm³)  =   0.99710
                               Volume (L)  =   1.00299
                        Activity of water  =   1.000
                 Ionic strength (mol/kgw)  =   1.000e-03
                       Mass of water (kg)  =   1.000e+00
                 Total alkalinity (eq/kg)  =   1.062e-08
                         Temperature (°C)  =  25.00
                  Electrical balance (eq)  =  -1.451e-09
 Percent error, 100*(Cat-|An|)/(Cat+|An|)  =  -0.00
                               Iterations  =  23 (91 overall)
                                  Total H  = 1.110124e+02
                                  Total O  = 5.550922e+01

----------------------------Distribution of species----------------------------

                                               Log       Log       Log    mole V
   Species          Molality    Activity  Molality  Activity     Gamma   cm³/mol

   OH-             1.096e-07   1.058e-07    -6.960    -6.976    -0.016     -4.11
   H+              9.900e-08   9.569e-08    -7.004    -7.019    -0.015      0.00
   H2O             5.551e+01   1.000e+00     1.744    -0.000     0.000     18.07
H(0)          0.000e+00
   H2              0.000e+00   0.000e+00   -42.220   -42.220     0.000     28.61
N(-3)         0.000e+00
   NH4+            0.000e+00   0.000e+00   -54.240   -54.256    -0.016     17.96
   NH3             0.000e+00   0.000e+00   -56.481   -56.481     0.000     24.42
N(0)          9.174e-09
   N2              4.587e-09   4.588e-09    -8.338    -8.338     0.000     29.29
N(3)          3.164e-14
   NO2-            3.164e-14   3.052e-14   -13.500   -13.515    -0.016     24.97
N(5)          1.000e-03
   NO3-            1.000e-03   9.646e-04    -3.000    -3.016    -0.016     29.49
Na            1.000e-03
   Na+             1.000e-03   9.652e-04    -3.000    -3.015    -0.015     -1.48
   NaOH            1.021e-20   1.021e-20   -19.991   -19.991     0.000     (0)  
O(0)          2.293e-08
   O2              1.147e-08   1.147e-08    -7.941    -7.940     0.000     30.40

------------------------------Saturation indices-------------------------------

  Phase               SI** log IAP   log K(298 K,   1 atm)

  H2(g)           -39.12    -42.22   -3.10  H2
  H2O(g)           -1.50     -0.00    1.50  H2O
  N2(g)            -5.16     -8.34   -3.18  N2
  NH3(g)          -58.28    -56.48    1.80  NH3
  O2(g)            -5.05     -7.94   -2.89  O2

**For a gas, SI = log10(fugacity). Fugacity = pressure * phi / 1 atm.
  For ideal gases, phi = 1.

Using solution 5.	
Using exchange 5.	Exchange assemblage after simulation 1.

-----------------------------Exchange composition------------------------------

X                1.100e-03 mol

	                               Equiv-    Equivalent      Log 
	Species             Moles      alents      Fraction     Gamma

	NaX               1.100e-03   1.100e-03   1.000e+00    -0.015
	NH4X              2.429e-54   2.429e-54   2.208e-51     0.000

-----------------------------Solution composition------------------------------

	Elements           Molality       Moles

	N                 1.000e-03   1.000e-03
	Na                1.000e-03   1.000e-03

----------------------------Description of solution----------------------------

                                       pH  =   7.019      Charge balance
                                       pe  =  12.516      Adjusted to redox equilibrium
      Specific Conductance (µS/cm,  25°C)  = 118
                          Density (g/cm³)  =   0.99710
                               Volume (L)  =   1.00299
                        Activity of water  =   1.000
                 Ionic strength (mol/kgw)  =   1.000e-03
                       Mass of water (kg)  =   1.000e+00
                 Total alkalinity (eq/kg)  =   1.062e-08
                         Temperature (°C)  =  25.00
                  Electrical balance (eq)  =  -1.451e-09
 Percent error, 100*(Cat-|An|)/(Cat+|An|)  =  -0.00
                               Iterations  =  23 (114 overall)
                                  Total H  = 1.110124e+02
                                  Total O  = 5.550922e+01

----------------------------Distribution of species----------------------------

                                               Log       Log       Log    mole V
   Species          Molality    Activity  Molality  Activity     Gamma   cm³/mol

   OH-             1.096e-07   1.058e-07    -6.960    -6.976    -0.016     -4.11
   H+              9.900e-08   9.569e-08    -7.004    -7.019    -0.015      0.00
   H2O             5.551e+01   1.000e+00     1.744    -0.000     0.000     18.07
H(0)          0.000e+00
   H2              0.000e+00   0.000e+00   -42.220   -42.220     0.000     28.61
N(-3)         0.000e+00
   NH4+            0.000e+00   0.000e+00   -54.240   -54.256    -0.016     17.96
   NH3             0.000e+00   0.000e+00   -56.481   -56.481     0.000     24.42
N(0)          9.174e-09
   N2              4.587e-09   4.588e-09    -8.338    -8.338     0.000     29.29
N(3)          3.164e-14
   NO2-            3.164e-14   3.052e-14   -13.500   -13.515    -0.016     24.97
N(5)          1.000e-03
   NO3-            1.000e-03   9.646e-04    -3.000    -3.016    -0.016     29.49
Na            1.000e-03
   Na+             1.000e-03   9.652e-04    -3.000    -3.015    -0.015     -1.48
   NaOH            1.021e-20   1.021e-20   -19.991   -19.991     0.000     (0)  
O(0)          2.293e-08
   O2              1.147e-08   1.147e-08    -7.941    -7.940     0.000     30.40

------------------------------Saturation indices-------------------------------

  Phase               SI** log IAP   log K(298 K,   1 atm)

  H2(g)           -39.12    -42.22   -3.10  H2
  H2O(g)           -1.50     -0.00    1.50  H2O
  N2(g)            -5.16     -8.34   -3.18  N2
  NH3(g)          -58.28    -56.48    1.80  NH3
  O2(g)            -5.05     -7.94   -2.89  O2

**For a gas, SI = log10(fugacity). Fugacity = pressure * phi / 1 atm.
  For ideal gases, phi = 1.

Using solution 6.	
Using exchange 6.	Exchange assemblage after simulation 1.

-----------------------------Exchange composition------------------------------

X                1.100e-03 mol

	                               Equiv-    Equivalent      Log 
	Species             Moles      alents      Fraction     Gamma

	NaX               1.100e-03   1.100e-03   1.000e+00    -0.015
	NH4X              2.429e-54   2.429e-54   2.208e-51     0.000

-----------------------------Solution composition------------------------------

	Elements           Molality       Moles

	N                 1.000e-03   1.000e-03
	Na                1.000e-03   1.000e-03

----------------------------Description of solution----------------------------

                                       pH  =   7.019      Charge balance
                                       pe  =  12.516      Adjusted to redox equilibrium
      Specific Conductance (µS/cm,  25°C)  = 118
                          Density (g/cm³)  =   0.99710
                               Volume (L)  =   1.00299
                        Activity of water  =   1.000
                 Ionic strength (mol/kgw)  =   1.000e-03
                       Mass of water (kg)  =   1.000e+00
                 Total alkalinity (eq/kg)  =   1.062e-08
                         Temperature (°C)  =  25.00
                  Electrical balance (eq)  =  -1.451e-09
 Percent error, 100*(Cat-|An|)/(Cat+|An|)  =  -0.00
                               Iterations  =  23 (137 overall)
                                  Total H  = 1.110124e+02
                                  Total O  = 5.550922e+01

----------------------------Distribution of species----------------------------

                                               Log       Log       Log    mole V
   Species          Molality    Activity  Molality  Activity     Gamma   cm³/mol

   OH-             1.096e-07   1.058e-07    -6.960    -6.976    -0.016     -4.11
   H+              9.900e-08   9.569e-08    -7.004    -7.019    -0.015      0.00
   H2O             5.551e+01   1.000e+00     1.744    -0.000     0.000     18.07
H(0)          0.000e+00
   H2              0.000e+00   0.000e+00   -42.220   -42.220     0.000     28.61
N(-3)         0.000e+00
   NH4+            0.000e+00   0.000e+00   -54.240   -54.256    -0.016     17.96
   NH3             0.000e+00   0.000e+00   -56.481   -56.481     0.000     24.42
N(0)          9.174e-09
   N2              4.587e-09   4.588e-09    -8.338    -8.338     0.000     29.29
N(3)          3.164e-14
   NO2-            3.164e-14   3.052e-14   -13.500   -13.515    -0.016     24.97
N(5)          1.000e-03
   NO3-            1.000e-03   9.646e-04    -3.000    -3.016    -0.016     29.49
Na            1.000e-03
   Na+             1.000e-03   9.652e-04    -3.000    -3.015    -0.015     -1.48
   NaOH            1.021e-20   1.021e-20   -19.991   -19.991     0.000     (0)  
O(0)          2.293e-08
   O2              1.147e-08   1.147e-08    -7.941    -7.940     0.000     30.40

------------------------------Saturation indices-------------------------------

  Phase               SI** log IAP   log K(298 K,   1 atm)

  H2(g)           -39.12    -42.22   -3.10  H2
  H2O(g)           -1.50     -0.00    1.50  H2O
  N2(g)            -5.16     -8.34   -3.18  N2
  NH3(g)          -58.28    -56.48    1.80  NH3
  O2(g)            -5.05     -7.94   -2.89  O2

**For a gas, SI = log10(fugacity). Fugacity = pressure * phi / 1 atm.
  For ideal gases, phi = 1.

Using solution 7.	
Using exchange 7.	Exchange assemblage after simulation 1.

-----------------------------Exchange composition------------------------------

X                1.100e-03 mol

	                               Equiv-    Equivalent      Log 
	Species             Moles      alents      Fraction     Gamma

	NaX               1.100e-03   1.100e-03   1.000e+00    -0.015
	NH4X              2.429e-54   2.429e-54   2.208e-51     0.000

-----------------------------Solution composition------------------------------

	Elements           Molality       Moles

	N                 1.000e-03   1.000e-03
	Na                1.000e-03   1.000e-03

----------------------------Description of solution----------------------------

                                       pH  =   7.019      Charge balance
                                       pe  =  12.516      Adjusted to redox equilibrium
      Specific Conductance (µS/cm,  25°C)  = 118
                          Density (g/cm³)  =   0.99710
                               Volume (L)  =   1.00299
                        Activity of water  =   1.000
                 Ionic strength (mol/kgw)  =   1.000e-03
                       Mass of water (kg)  =   1.000e+00
                 Total alkalinity (eq/kg)  =   1.062e-08
                         Temperature (°C)  =  25.00
                  Electrical balance (eq)  =  -1.451e-09
 Percent error, 100*(Cat-|An|)/(Cat+|An|)  =  -0.00
                               Iterations  =  23 (160 overall)
                                  Total H  = 1.110124e+02
                                  Total O  = 5.550922e+01

----------------------------Distribution of species----------------------------

                                               Log       Log       Log    mole V
   Species          Molality    Activity  Molality  Activity     Gamma   cm³/mol

   OH-             1.096e-07   1.058e-07    -6.960    -6.976    -0.016     -4.11
   H+              9.900e-08   9.569e-08    -7.004    -7.019    -0.015      0.00
   H2O             5.551e+01   1.000e+00     1.744    -0.000     0.000     18.07
H(0)          0.000e+00
   H2              0.000e+00   0.000e+00   -42.220   -42.220     0.000     28.61
N(-3)         0.000e+00
   NH4+            0.000e+00   0.000e+00   -54.240   -54.256    -0.016     17.96
   NH3             0.000e+00   0.000e+00   -56.481   -56.481     0.000     24.42
N(0)          9.174e-09
   N2              4.587e-09   4.588e-09    -8.338    -8.338     0.000     29.29
N(3)          3.164e-14
   NO2-            3.164e-14   3.052e-14   -13.500   -13.515    -0.016     24.97
N(5)          1.000e-03
   NO3-            1.000e-03   9.646e-04    -3.000    -3.016    -0.016     29.49
Na            1.000e-03
   Na+             1.000e-03   9.652e-04    -3.000    -3.015    -0.015     -1.48
   NaOH            1.021e-20   1.021e-20   -19.991   -19.991     0.000     (0)  
O(0)          2.293e-08
   O2              1.147e-08   1.147e-08    -7.941    -7.940     0.000     30.40

------------------------------Saturation indices-------------------------------

  Phase               SI** log IAP   log K(298 K,   1 atm)

  H2(g)           -39.12    -42.22   -3.10  H2
  H2O(g)           -1.50     -0.00    1.50  H2O
  N2(g)            -5.16     -8.34   -3.18  N2
  NH3(g)          -58.28    -56.48    1.80  NH3
  O2(g)            -5.05     -7.94   -2.89  O2

**For a gas, SI = log10(fugacity). Fugacity = pressure * phi / 1 atm.
  For ideal gases, phi = 1.

Using solution 8.	
Using exchange 8.	Exchange assemblage after simulation 1.

-----------------------------Exchange composition------------------------------

X                1.100e-03 mol

	                               Equiv-    Equivalent      Log 
	Species             Moles      alents      Fraction     Gamma

	NaX               1.100e-03   1.100e-03   1.000e+00    -0.015
	NH4X              2.429e-54   2.429e-54   2.208e-51     0.000

-----------------------------Solution composition------------------------------

	Elements           Molality       Moles

	N                 1.000e-03   1.000e-03
	Na                1.000e-03   1.000e-03

----------------------------Description of solution----------------------------

                                       pH  =   7.019      Charge balance
                                       pe  =  12.516      Adjusted to redox equilibrium
      Specific Conductance (µS/cm,  25°C)  = 118
                          Density (g/cm³)  =   0.99710
                               Volume (L)  =   1.00299
                        Activity of water  =   1.000
                 Ionic strength (mol/kgw)  =   1.000e-03
                       Mass of water (kg)  =   1.000e+00
                 Total alkalinity (eq/kg)  =   1.062e-08
                         Temperature (°C)  =  25.00
                  Electrical balance (eq)  =  -1.451e-09
 Percent error, 100*(Cat-|An|)/(Cat+|An|)  =  -0.00
                               Iterations  =  23 (183 overall)
                                  Total H  = 1.110124e+02
                                  Total O  = 5.550922e+01

----------------------------Distribution of species----------------------------

                                               Log       Log       Log    mole V
   Species          Molality    Activity  Molality  Activity     Gamma   cm³/mol

   OH-             1.096e-07   1.058e-07    -6.960    -6.976    -0.016     -4.11
   H+              9.900e-08   9.569e-08    -7.004    -7.019    -0.015      0.00
   H2O             5.551e+01   1.000e+00     1.744    -0.000     0.000     18.07
H(0)          0.000e+00
   H2              0.000e+00   0.000e+00   -42.220   -42.220     0.000     28.61
N(-3)         0.000e+00
   NH4+            0.000e+00   0.000e+00   -54.240   -54.256    -0.016     17.96
   NH3             0.000e+00   0.000e+00   -56.481   -56.481     0.000     24.42
N(0)          9.174e-09
   N2              4.587e-09   4.588e-09    -8.338    -8.338     0.000     29.29
N(3)          3.164e-14
   NO2-            3.164e-14   3.052e-14   -13.500   -13.515    -0.016     24.97
N(5)          1.000e-03
   NO3-            1.000e-03   9.646e-04    -3.000    -3.016    -0.016     29.49
Na            1.000e-03
   Na+             1.000e-03   9.652e-04    -3.000    -3.015    -0.015     -1.48
   NaOH            1.021e-20   1.021e-20   -19.991   -19.991     0.000     (0)  
O(0)          2.293e-08
   O2              1.147e-08   1.147e-08    -7.941    -7.940     0.000     30.40

------------------------------Saturation indices-------------------------------

  Phase               SI** log IAP   log K(298 K,   1 atm)

  H2(g)           -39.12    -42.22   -3.10  H2
  H2O(g)           -1.50     -0.00    1.50  H2O
  N2(g)            -5.16     -8.34   -3.18  N2
  NH3(g)          -58.28    -56.48    1.80  NH3
  O2(g)            -5.05     -7.94   -2.89  O2

**For a gas, SI = log10(fugacity). Fugacity = pressure * phi / 1 atm.
  For ideal gases, phi = 1.

Using solution 9.	
Using exchange 9.	Exchange assemblage after simulation 1.

-----------------------------Exchange composition------------------------------

X                1.100e-03 mol

	                               Equiv-    Equivalent      Log 
	Species             Moles      alents      Fraction     Gamma

	NaX               1.100e-03   1.100e-03   1.000e+00    -0.015
	NH4X              2.429e-54   2.429e-54   2.208e-51     0.000

-----------------------------Solution composition------------------------------

	Elements           Molality       Moles

	N                 1.000e-03   1.000e-03
	Na                1.000e-03   1.000e-03

----------------------------Description of solution----------------------------

                                       pH  =   7.019      Charge balance
                                       pe  =  12.516      Adjusted to redox equilibrium
      Specific Conductance (µS/cm,  25°C)  = 118
                          Density (g/cm³)  =   0.99710
                               Volume (L)  =   1.00299
                        Activity of water  =   1.000
                 Ionic strength (mol/kgw)  =   1.000e-03
                       Mass of water (kg)  =   1.000e+00
                 Total alkalinity (eq/kg)  =   1.062e-08
                         Temperature (°C)  =  25.00
                  Electrical balance (eq)  =  -1.451e-09
 Percent error, 100*(Cat-|An|)/(Cat+|An|)  =  -0.00
                               Iterations  =  23 (206 overall)
                                  Total H  = 1.110124e+02
                                  Total O  = 5.550922e+01

----------------------------Distribution of species----------------------------

                                               Log       Log       Log    mole V
   Species          Molality    Activity  Molality  Activity     Gamma   cm³/mol

   OH-             1.096e-07   1.058e-07    -6.960    -6.976    -0.016     -4.11
   H+              9.900e-08   9.569e-08    -7.004    -7.019    -0.015      0.00
   H2O             5.551e+01   1.000e+00     1.744    -0.000     0.000     18.07
H(0)          0.000e+00
   H2              0.000e+00   0.000e+00   -42.220   -42.220     0.000     28.61
N(-3)         0.000e+00
   NH4+            0.000e+00   0.000e+00   -54.240   -54.256    -0.016     17.96
   NH3             0.000e+00   0.000e+00   -56.481   -56.481     0.000     24.42
N(0)          9.174e-09
   N2              4.587e-09   4.588e-09    -8.338    -8.338     0.000     29.29
N(3)          3.164e-14
   NO2-            3.164e-14   3.052e-14   -13.500   -13.515    -0.016     24.97
N(5)          1.000e-03
   NO3-            1.000e-03   9.646e-04    -3.000    -3.016    -0.016     29.49
Na            1.000e-03
   Na+             1.000e-03   9.652e-04    -3.000    -3.015    -0.015     -1.48
   NaOH            1.021e-20   1.021e-20   -19.991   -19.991     0.000     (0)  
O(0)          2.293e-08
   O2              1.147e-08   1.147e-08    -7.941    -7.940     0.000     30.40

------------------------------Saturation indices-------------------------------

  Phase               SI** log IAP   log K(298 K,   1 atm)

  H2(g)           -39.12    -42.22   -3.10  H2
  H2O(g)           -1.50     -0.00    1.50  H2O
  N2(g)            -5.16     -8.34   -3.18  N2
  NH3(g)          -58.28    -56.48    1.80  NH3
  O2(g)            -5.05     -7.94   -2.89  O2

**For a gas, SI = log10(fugacity). Fugacity = pressure * phi / 1 atm.
  For ideal gases, phi = 1.

Using solution 10.	
Using exchange 10.	Exchange assemblage after simulation 1.

-----------------------------Exchange composition------------------------------

X                1.100e-03 mol

	                               Equiv-    Equivalent      Log 
	Species             Moles      alents      Fraction     Gamma

	NaX               1.100e-03   1.100e-03   1.000e+00    -0.015
	NH4X              2.429e-54   2.429e-54   2.208e-51     0.000

-----------------------------Solution composition------------------------------

	Elements           Molality       Moles

	N                 1.000e-03   1.000e-03
	Na                1.000e-03   1.000e-03

----------------------------Description of solution----------------------------

                                       pH  =   7.019      Charge balance
                                       pe  =  12.516      Adjusted to redox equilibrium
      Specific Conductance (µS/cm,  25°C)  = 118
                          Density (g/cm³)  =   0.99710
                               Volume (L)  =   1.00299
                        Activity of water  =   1.000
                 Ionic strength (mol/kgw)  =   1.000e-03
                       Mass of water (kg)  =   1.000e+00
                 Total alkalinity (eq/kg)  =   1.062e-08
                         Temperature (°C)  =  25.00
                  Electrical balance (eq)  =  -1.451e-09
 Percent error, 100*(Cat-|An|)/(Cat+|An|)  =  -0.00
                               Iterations  =  23 (229 overall)
                                  Total H  = 1.110124e+02
                                  Total O  = 5.550922e+01

----------------------------Distribution of species----------------------------

                                               Log       Log       Log    mole V
   Species          Molality    Activity  Molality  Activity     Gamma   cm³/mol

   OH-             1.096e-07   1.058e-07    -6.960    -6.976    -0.016     -4.11
   H+              9.900e-08   9.569e-08    -7.004    -7.019    -0.015      0.00
   H2O             5.551e+01   1.000e+00     1.744    -0.000     0.000     18.07
H(0)          0.000e+00
   H2              0.000e+00   0.000e+00   -42.220   -42.220     0.000     28.61
N(-3)         0.000e+00
   NH4+            0.000e+00   0.000e+00   -54.240   -54.256    -0.016     17.96
   NH3             0.000e+00   0.000e+00   -56.481   -56.481     0.000     24.42
N(0)          9.174e-09
   N2              4.587e-09   4.588e-09    -8.338    -8.338     0.000     29.29
N(3)          3.164e-14
   NO2-            3.164e-14   3.052e-14   -13.500   -13.515    -0.016     24.97
N(5)          1.000e-03
   NO3-            1.000e-03   9.646e-04    -3.000    -3.016    -0.016     29.49
Na            1.000e-03
   Na+             1.000e-03   9.652e-04    -3.000    -3.015    -0.015     -1.48
   NaOH            1.021e-20   1.021e-20   -19.991   -19.991     0.000     (0)  
O(0)          2.293e-08
   O2              1.147e-08   1.147e-08    -7.941    -7.940     0.000     30.40

------------------------------Saturation indices-------------------------------

  Phase               SI** log IAP   log K(298 K,   1 atm)

  H2(g)           -39.12    -42.22   -3.10  H2
  H2O(g)           -1.50     -0.00    1.50  H2O
  N2(g)            -5.16     -8.34   -3.18  N2
  NH3(g)          -58.28    -56.48    1.80  NH3
  O2(g)            -5.05     -7.94   -2.89  O2

**For a gas, SI = log10(fugacity). Fugacity = pressure * phi / 1 atm.
  For ideal gases, phi = 1.

Using solution 11.	
Using exchange 11.	Exchange assemblage after simulation 1.

-----------------------------Exchange composition------------------------------

X                1.100e-03 mol

	                               Equiv-    Equivalent      Log 
	Species             Moles      alents      Fraction     Gamma

	NaX               1.100e-03   1.100e-03   1.000e+00    -0.015
	NH4X              2.429e-54   2.429e-54   2.208e-51     0.000

-----------------------------Solution composition------------------------------

	Elements           Molality       Moles

	N                 1.000e-03   1.000e-03
	Na                1.000e-03   1.000e-03

----------------------------Description of solution----------------------------

                                       pH  =   7.019      Charge balance
                                       pe  =  12.516      Adjusted to redox equilibrium
      Specific Conductance (µS/cm,  25°C)  = 118
                          Density (g/cm³)  =   0.99710
                               Volume (L)  =   1.00299
                        Activity of water  =   1.000
                 Ionic strength (mol/kgw)  =   1.000e-03
                       Mass of water (kg)  =   1.000e+00
                 Total alkalinity (eq/kg)  =   1.062e-08
                         Temperature (°C)  =  25.00
                  Electrical balance (eq)  =  -1.451e-09
 Percent error, 100*(Cat-|An|)/(Cat+|An|)  =  -0.00
                               Iterations  =  23 (252 overall)
                                  Total H  = 1.110124e+02
                                  Total O  = 5.550922e+01

----------------------------Distribution of species----------------------------

                                               Log       Log       Log    mole V
   Species          Molality    Activity  Molality  Activity     Gamma   cm³/mol

   OH-             1.096e-07   1.058e-07    -6.960    -6.976    -0.016     -4.11
   H+              9.900e-08   9.569e-08    -7.004    -7.019    -0.015      0.00
   H2O             5.551e+01   1.000e+00     1.744    -0.000     0.000     18.07
H(0)          0.000e+00
   H2              0.000e+00   0.000e+00   -42.220   -42.220     0.000     28.61
N(-3)         0.000e+00
   NH4+            0.000e+00   0.000e+00   -54.240   -54.256    -0.016     17.96
   NH3             0.000e+00   0.000e+00   -56.481   -56.481     0.000     24.42
N(0)          9.174e-09
   N2              4.587e-09   4.588e-09    -8.338    -8.338     0.000     29.29
N(3)          3.164e-14
   NO2-            3.164e-14   3.052e-14   -13.500   -13.515    -0.016     24.97
N(5)          1.000e-03
   NO3-            1.000e-03   9.646e-04    -3.000    -3.016    -0.016     29.49
Na            1.000e-03
   Na+             1.000e-03   9.652e-04    -3.000    -3.015    -0.015     -1.48
   NaOH            1.021e-20   1.021e-20   -19.991   -19.991     0.000     (0)  
O(0)          2.293e-08
   O2              1.147e-08   1.147e-08    -7.941    -7.940     0.000     30.40

------------------------------Saturation indices-------------------------------

  Phase               SI** log IAP   log K(298 K,   1 atm)

  H2(g)           -39.12    -42.22   -3.10  H2
  H2O(g)           -1.50     -0.00    1.50  H2O
  N2(g)            -5.16     -8.34   -3.18  N2
  NH3(g)          -58.28    -56.48    1.80  NH3
  O2(g)            -5.05     -7.94   -2.89  O2

**For a gas, SI = log10(fugacity). Fugacity = pressure * phi / 1 atm.
  For ideal gases, phi = 1.

Using solution 12.	
Using exchange 12.	Exchange assemblage after simulation 1.

-----------------------------Exchange composition------------------------------

X                1.100e-03 mol

	                               Equiv-    Equivalent      Log 
	Species             Moles      alents      Fraction     Gamma

	NaX               1.100e-03   1.100e-03   1.000e+00    -0.015
	NH4X              2.429e-54   2.429e-54   2.208e-51     0.000

-----------------------------Solution composition------------------------------

	Elements           Molality       Moles

	N                 1.000e-03   1.000e-03
	Na                1.000e-03   1.000e-03

----------------------------Description of solution----------------------------

                                       pH  =   7.019      Charge balance
                                       pe  =  12.516      Adjusted to redox equilibrium
      Specific Conductance (µS/cm,  25°C)  = 118
                          Density (g/cm³)  =   0.99710
                               Volume (L)  =   1.00299
                        Activity of water  =   1.000
                 Ionic strength (mol/kgw)  =   1.000e-03
                       Mass of water (kg)  =   1.000e+00
                 Total alkalinity (eq/kg)  =   1.062e-08
                         Temperature (°C)  =  25.00
                  Electrical balance (eq)  =  -1.451e-09
 Percent error, 100*(Cat-|An|)/(Cat+|An|)  =  -0.00
                               Iterations  =  23 (275 overall)
                                  Total H  = 1.110124e+02
                                  Total O  = 5.550922e+01

----------------------------Distribution of species----------------------------

                                               Log       Log       Log    mole V
   Species          Molality    Activity  Molality  Activity     Gamma   cm³/mol

   OH-             1.096e-07   1.058e-07    -6.960    -6.976    -0.016     -4.11
   H+              9.900e-08   9.569e-08    -7.004    -7.019    -0.015      0.00
   H2O             5.551e+01   1.000e+00     1.744    -0.000     0.000     18.07
H(0)          0.000e+00
   H2              0.000e+00   0.000e+00   -42.220   -42.220     0.000     28.61
N(-3)         0.000e+00
   NH4+            0.000e+00   0.000e+00   -54.240   -54.256    -0.016     17.96
   NH3             0.000e+00   0.000e+00   -56.481   -56.481     0.000     24.42
N(0)          9.174e-09
   N2              4.587e-09   4.588e-09    -8.338    -8.338     0.000     29.29
N(3)          3.164e-14
   NO2-            3.164e-14   3.052e-14   -13.500   -13.515    -0.016     24.97
N(5)          1.000e-03
   NO3-            1.000e-03   9.646e-04    -3.000    -3.016    -0.016     29.49
Na            1.000e-03
   Na+             1.000e-03   9.652e-04    -3.000    -3.015    -0.015     -1.48
   NaOH            1.021e-20   1.021e-20   -19.991   -19.991     0.000     (0)  
O(0)          2.293e-08
   O2              1.147e-08   1.147e-08    -7.941    -7.940     0.000     30.40

------------------------------Saturation indices-------------------------------

  Phase               SI** log IAP   log K(298 K,   1 atm)

  H2(g)           -39.12    -42.22   -3.10  H2
  H2O(g)           -1.50     -0.00    1.50  H2O
  N2(g)            -5.16     -8.34   -3.18  N2
  NH3(g)          -58.28    -56.48    1.80  NH3
  O2(g)            -5.05     -7.94   -2.89  O2

**For a gas, SI = log10(fugacity). Fugacity = pressure * phi / 1 atm.
  For ideal gases, phi = 1.

Using solution 13.	
Using exchange 13.	Exchange assemblage after simulation 1.

-----------------------------Exchange composition------------------------------

X                1.100e-03 mol

	                               Equiv-    Equivalent      Log 
	Species             Moles      alents      Fraction     Gamma

	NaX               1.100e-03   1.100e-03   1.000e+00    -0.015
	NH4X              2.429e-54   2.429e-54   2.208e-51     0.000

-----------------------------Solution composition------------------------------

	Elements           Molality       Moles

	N                 1.000e-03   1.000e-03
	Na                1.000e-03   1.000e-03

----------------------------Description of solution----------------------------

                                       pH  =   7.019      Charge balance
                                       pe  =  12.516      Adjusted to redox equilibrium
      Specific Conductance (µS/cm,  25°C)  = 118
                          Density (g/cm³)  =   0.99710
                               Volume (L)  =   1.00299
                        Activity of water  =   1.000
                 Ionic strength (mol/kgw)  =   1.000e-03
                       Mass of water (kg)  =   1.000e+00
                 Total alkalinity (eq/kg)  =   1.062e-08
                         Temperature (°C)  =  25.00
                  Electrical balance (eq)  =  -1.451e-09
 Percent error, 100*(Cat-|An|)/(Cat+|An|)  =  -0.00
                               Iterations  =  23 (298 overall)
                                  Total H  = 1.110124e+02
                                  Total O  = 5.550922e+01

----------------------------Distribution of species----------------------------

                                               Log       Log       Log    mole V
   Species          Molality    Activity  Molality  Activity     Gamma   cm³/mol

   OH-             1.096e-07   1.058e-07    -6.960    -6.976    -0.016     -4.11
   H+              9.900e-08   9.569e-08    -7.004    -7.019    -0.015      0.00
   H2O             5.551e+01   1.000e+00     1.744    -0.000     0.000     18.07
H(0)          0.000e+00
   H2              0.000e+00   0.000e+00   -42.220   -42.220     0.000     28.61
N(-3)         0.000e+00
   NH4+            0.000e+00   0.000e+00   -54.240   -54.256    -0.016     17.96
   NH3             0.000e+00   0.000e+00   -56.481   -56.481     0.000     24.42
N(0)          9.174e-09
   N2              4.587e-09   4.588e-09    -8.338    -8.338     0.000     29.29
N(3)          3.164e-14
   NO2-            3.164e-14   3.052e-14   -13.500   -13.515    -0.016     24.97
N(5)          1.000e-03
   NO3-            1.000e-03   9.646e-04    -3.000    -3.016    -0.016     29.49
Na            1.000e-03
   Na+             1.000e-03   9.652e-04    -3.000    -3.015    -0.015     -1.48
   NaOH            1.021e-20   1.021e-20   -19.991   -19.991     0.000     (0)  
O(0)          2.293e-08
   O2              1.147e-08   1.147e-08    -7.941    -7.940     0.000     30.40

------------------------------Saturation indices-------------------------------

  Phase               SI** log IAP   log K(298 K,   1 atm)

  H2(g)           -39.12    -42.22   -3.10  H2
  H2O(g)           -1.50     -0.00    1.50  H2O
  N2(g)            -5.16     -8.34   -3.18  N2
  NH3(g)          -58.28    -56.48    1.80  NH3
  O2(g)            -5.05     -7.94   -2.89  O2

**For a gas, SI = log10(fugacity). Fugacity = pressure * phi / 1 atm.
  For ideal gases, phi = 1.

Using solution 14.	
Using exchange 14.	Exchange assemblage after simulation 1.

-----------------------------Exchange composition------------------------------

X                1.100e-03 mol

	                               Equiv-    Equivalent      Log 
	Species             Moles      alents      Fraction     Gamma

	NaX               1.100e-03   1.100e-03   1.000e+00    -0.015
	NH4X              2.429e-54   2.429e-54   2.208e-51     0.000

-----------------------------Solution composition------------------------------

	Elements           Molality       Moles

	N                 1.000e-03   1.000e-03
	Na                1.000e-03   1.000e-03

----------------------------Description of solution----------------------------

                                       pH  =   7.019      Charge balance
                                       pe  =  12.516      Adjusted to redox equilibrium
      Specific Conductance (µS/cm,  25°C)  = 118
                          Density (g/cm³)  =   0.99710
                               Volume (L)  =   1.00299
                        Activity of water  =   1.000
                 Ionic strength (mol/kgw)  =   1.000e-03
                       Mass of water (kg)  =   1.000e+00
                 Total alkalinity (eq/kg)  =   1.062e-08
                         Temperature (°C)  =  25.00
                  Electrical balance (eq)  =  -1.451e-09
 Percent error, 100*(Cat-|An|)/(Cat+|An|)  =  -0.00
                               Iterations  =  23 (321 overall)
                                  Total H  = 1.110124e+02
                                  Total O  = 5.550922e+01

----------------------------Distribution of species----------------------------

                                               Log       Log       Log    mole V
   Species          Molality    Activity  Molality  Activity     Gamma   cm³/mol

   OH-             1.096e-07   1.058e-07    -6.960    -6.976    -0.016     -4.11
   H+              9.900e-08   9.569e-08    -7.004    -7.019    -0.015      0.00
   H2O             5.551e+01   1.000e+00     1.744    -0.000     0.000     18.07
H(0)          0.000e+00
   H2              0.000e+00   0.000e+00   -42.220   -42.220     0.000     28.61
N(-3)         0.000e+00
   NH4+            0.000e+00   0.000e+00   -54.240   -54.256    -0.016     17.96
   NH3             0.000e+00   0.000e+00   -56.481   -56.481     0.000     24.42
N(0)          9.174e-09
   N2              4.587e-09   4.588e-09    -8.338    -8.338     0.000     29.29
N(3)          3.164e-14
   NO2-            3.164e-14   3.052e-14   -13.500   -13.515    -0.016     24.97
N(5)          1.000e-03
   NO3-            1.000e-03   9.646e-04    -3.000    -3.016    -0.016     29.49
Na            1.000e-03
   Na+             1.000e-03   9.652e-04    -3.000    -3.015    -0.015     -1.48
   NaOH            1.021e-20   1.021e-20   -19.991   -19.991     0.000     (0)  
O(0)          2.293e-08
   O2              1.147e-08   1.147e-08    -7.941    -7.940     0.000     30.40

------------------------------Saturation indices-------------------------------

  Phase               SI** log IAP   log K(298 K,   1 atm)

  H2(g)           -39.12    -42.22   -3.10  H2
  H2O(g)           -1.50     -0.00    1.50  H2O
  N2(g)            -5.16     -8.34   -3.18  N2
  NH3(g)          -58.28    -56.48    1.80  NH3
  O2(g)            -5.05     -7.94   -2.89  O2

**For a gas, SI = log10(fugacity). Fugacity = pressure * phi / 1 atm.
  For ideal gases, phi = 1.

Using solution 15.	
Using exchange 15.	Exchange assemblage after simulation 1.

-----------------------------Exchange composition------------------------------

X                1.100e-03 mol

	                               Equiv-    Equivalent      Log 
	Species             Moles      alents      Fraction     Gamma

	NaX               1.100e-03   1.100e-03   1.000e+00    -0.015
	NH4X              2.429e-54   2.429e-54   2.208e-51     0.000

-----------------------------Solution composition------------------------------

	Elements           Molality       Moles

	N                 1.000e-03   1.000e-03
	Na                1.000e-03   1.000e-03

----------------------------Description of solution----------------------------

                                       pH  =   7.019      Charge balance
                                       pe  =  12.516      Adjusted to redox equilibrium
      Specific Conductance (µS/cm,  25°C)  = 118
                          Density (g/cm³)  =   0.99710
                               Volume (L)  =   1.00299
                        Activity of water  =   1.000
                 Ionic strength (mol/kgw)  =   1.000e-03
                       Mass of water (kg)  =   1.000e+00
                 Total alkalinity (eq/kg)  =   1.062e-08
                         Temperature (°C)  =  25.00
                  Electrical balance (eq)  =  -1.451e-09
 Percent error, 100*(Cat-|An|)/(Cat+|An|)  =  -0.00
                               Iterations  =  23 (344 overall)
                                  Total H  = 1.110124e+02
                                  Total O  = 5.550922e+01

----------------------------Distribution of species----------------------------

                                               Log       Log       Log    mole V
   Species          Molality    Activity  Molality  Activity     Gamma   cm³/mol

   OH-             1.096e-07   1.058e-07    -6.960    -6.976    -0.016     -4.11
   H+              9.900e-08   9.569e-08    -7.004    -7.019    -0.015      0.00
   H2O             5.551e+01   1.000e+00     1.744    -0.000     0.000     18.07
H(0)          0.000e+00
   H2              0.000e+00   0.000e+00   -42.220   -42.220     0.000     28.61
N(-3)         0.000e+00
   NH4+            0.000e+00   0.000e+00   -54.240   -54.256    -0.016     17.96
   NH3             0.000e+00   0.000e+00   -56.481   -56.481     0.000     24.42
N(0)          9.174e-09
   N2              4.587e-09   4.588e-09    -8.338    -8.338     0.000     29.29
N(3)          3.164e-14
   NO2-            3.164e-14   3.052e-14   -13.500   -13.515    -0.016     24.97
N(5)          1.000e-03
   NO3-            1.000e-03   9.646e-04    -3.000    -3.016    -0.016     29.49
Na            1.000e-03
   Na+             1.000e-03   9.652e-04    -3.000    -3.015    -0.015     -1.48
   NaOH            1.021e-20   1.021e-20   -19.991   -19.991     0.000     (0)  
O(0)          2.293e-08
   O2              1.147e-08   1.147e-08    -7.941    -7.940     0.000     30.40

------------------------------Saturation indices-------------------------------

  Phase               SI** log IAP   log K(298 K,   1 atm)

  H2(g)           -39.12    -42.22   -3.10  H2
  H2O(g)           -1.50     -0.00    1.50  H2O
  N2(g)            -5.16     -8.34   -3.18  N2
  NH3(g)          -58.28    -56.48    1.80  NH3
  O2(g)            -5.05     -7.94   -2.89  O2

**For a gas, SI = log10(fugacity). Fugacity = pressure * phi / 1 atm.
  For ideal gases, phi = 1.

Using solution 16.	
Using exchange 16.	Exchange assemblage after simulation 1.

-----------------------------Exchange composition------------------------------

X                1.100e-03 mol

	                               Equiv-    Equivalent      Log 
	Species             Moles      alents      Fraction     Gamma

	NaX               1.100e-03   1.100e-03   1.000e+00    -0.015
	NH4X              2.429e-54   2.429e-54   2.208e-51     0.000

-----------------------------Solution composition------------------------------

	Elements           Molality       Moles

	N                 1.000e-03   1.000e-03
	Na                1.000e-03   1.000e-03

----------------------------Description of solution----------------------------

                                       pH  =   7.019      Charge balance
                                       pe  =  12.516      Adjusted to redox equilibrium
      Specific Conductance (µS/cm,  25°C)  = 118
                          Density (g/cm³)  =   0.99710
                               Volume (L)  =   1.00299
                        Activity of water  =   1.000
                 Ionic strength (mol/kgw)  =   1.000e-03
                       Mass of water (kg)  =   1.000e+00
                 Total alkalinity (eq/kg)  =   1.062e-08
                         Temperature (°C)  =  25.00
                  Electrical balance (eq)  =  -1.451e-09
 Percent error, 100*(Cat-|An|)/(Cat+|An|)  =  -0.00
                               Iterations  =  23 (367 overall)
                                  Total H  = 1.110124e+02
                                  Total O  = 5.550922e+01

----------------------------Distribution of species----------------------------

                                               Log       Log       Log    mole V
   Species          Molality    Activity  Molality  Activity     Gamma   cm³/mol

   OH-             1.096e-07   1.058e-07    -6.960    -6.976    -0.016     -4.11
   H+              9.900e-08   9.569e-08    -7.004    -7.019    -0.015      0.00
   H2O             5.551e+01   1.000e+00     1.744    -0.000     0.000     18.07
H(0)          0.000e+00
   H2              0.000e+00   0.000e+00   -42.220   -42.220     0.000     28.61
N(-3)         0.000e+00
   NH4+            0.000e+00   0.000e+00   -54.240   -54.256    -0.016     17.96
   NH3             0.000e+00   0.000e+00   -56.481   -56.481     0.000     24.42
N(0)          9.174e-09
   N2              4.587e-09   4.588e-09    -8.338    -8.338     0.000     29.29
N(3)          3.164e-14
   NO2-            3.164e-14   3.052e-14   -13.500   -13.515    -0.016     24.97
N(5)          1.000e-03
   NO3-            1.000e-03   9.646e-04    -3.000    -3.016    -0.016     29.49
Na            1.000e-03
   Na+             1.000e-03   9.652e-04    -3.000    -3.015    -0.015     -1.48
   NaOH            1.021e-20   1.021e-20   -19.991   -19.991     0.000     (0)  
O(0)          2.293e-08
   O2              1.147e-08   1.147e-08    -7.941    -7.940     0.000     30.40

------------------------------Saturation indices-------------------------------

  Phase               SI** log IAP   log K(298 K,   1 atm)

  H2(g)           -39.12    -42.22   -3.10  H2
  H2O(g)           -1.50     -0.00    1.50  H2O
  N2(g)            -5.16     -8.34   -3.18  N2
  NH3(g)          -58.28    -56.48    1.80  NH3
  O2(g)            -5.05     -7.94   -2.89  O2

**For a gas, SI = log10(fugacity). Fugacity = pressure * phi / 1 atm.
  For ideal gases, phi = 1.

Using solution 17.	

-----------------------------Solution composition------------------------------

	Elements           Molality       Moles

	N                 1.000e-03   1.000e-03
	Na                1.000e-03   1.000e-03

----------------------------Description of solution----------------------------

                                       pH  =   7.019      Charge balance
                                       pe  =  12.516      Adjusted to redox equilibrium
      Specific Conductance (µS/cm,  25°C)  = 118
                          Density (g/cm³)  =   0.99710
                               Volume (L)  =   1.00299
                        Activity of water  =   1.000
                 Ionic strength (mol/kgw)  =   1.000e-03
                       Mass of water (kg)  =   1.000e+00
                 Total alkalinity (eq/kg)  =   1.062e-08
                         Temperature (°C)  =  25.00
                  Electrical balance (eq)  =  -1.459e-09
 Percent error, 100*(Cat-|An|)/(Cat+|An|)  =  -0.00
                               Iterations  =  20 (387 overall)
                                  Total H  = 1.110124e+02
                                  Total O  = 5.550922e+01

----------------------------Distribution of species----------------------------

                                               Log       Log       Log    mole V
   Species          Molality    Activity  Molality  Activity     Gamma   cm³/mol

   OH-             1.096e-07   1.058e-07    -6.960    -6.976    -0.016     -4.11
   H+              9.900e-08   9.569e-08    -7.004    -7.019    -0.015      0.00
   H2O             5.551e+01   1.000e+00     1.744    -0.000     0.000     18.07
H(0)          0.000e+00
   H2              0.000e+00   0.000e+00   -42.220   -42.220     0.000     28.61
N(-3)         0.000e+00
   NH4+            0.000e+00   0.000e+00   -54.240   -54.256    -0.016     17.96
   NH3             0.000e+00   0.000e+00   -56.481   -56.481     0.000     24.42
N(0)          9.174e-09
   N2              4.587e-09   4.588e-09    -8.338    -8.338     0.000     29.29
N(3)          3.164e-14
   NO2-            3.164e-14   3.052e-14   -13.500   -13.515    -0.016     24.97
N(5)          1.000e-03
   NO3-            1.000e-03   9.646e-04    -3.000    -3.016    -0.016     29.49
Na            1.000e-03
   Na+             1.000e-03   9.652e-04    -3.000    -3.015    -0.015     -1.48
   NaOH            1.021e-20   1.021e-20   -19.991   -19.991     0.000     (0)  
O(0)          2.293e-08
   O2              1.147e-08   1.147e-08    -7.941    -7.940     0.000     30.40

------------------------------Saturation indices-------------------------------

  Phase               SI** log IAP   log K(298 K,   1 atm)

  H2(g)           -39.12    -42.22   -3.10  H2
  H2O(g)           -1.50     -0.00    1.50  H2O
  N2(g)            -5.16     -8.34   -3.18  N2
  NH3(g)          -58.28    -56.48    1.80  NH3
  O2(g)            -5.05     -7.94   -2.89  O2

**For a gas, SI = log10(fugacity). Fugacity = pressure * phi / 1 atm.
  For ideal gases, phi = 1.

Transport step   1.

Transport step   1. Mixrun   1.

Using solution 0.	Solution after simulation 2.

-----------------------------Solution composition------------------------------

	Elements           Molality       Moles

	Ca                6.000e-04   6.000e-04
	Cl                1.200e-03   1.200e-03

----------------------------Description of solution----------------------------

                                       pH  =   7.000      Charge balance
                                       pe  =   4.000      Adjusted to redox equilibrium
      Specific Conductance (µS/cm,  25°C)  = 152
                          Density (g/cm³)  =   0.99710
                               Volume (L)  =   1.00298
                        Activity of water  =   1.000
                 Ionic strength (mol/kgw)  =   1.800e-03
                       Mass of water (kg)  =   1.000e+00
                 Total alkalinity (eq/kg)  =   2.477e-09
                         Temperature (°C)  =  25.00
                  Electrical balance (eq)  =  -2.477e-09
 Percent error, 100*(Cat-|An|)/(Cat+|An|)  =  -0.00
                               Iterations  =   0
                                  Total H  = 1.110124e+02
                                  Total O  = 5.550622e+01

----------------------------Distribution of species----------------------------

                                               Log       Log       Log    mole V
   Species          Molality    Activity  Molality  Activity     Gamma   cm³/mol

   OH-             1.061e-07   1.012e-07    -6.974    -6.995    -0.021     -4.10
   H+              1.045e-07   1.000e-07    -6.981    -7.000    -0.019      0.00
   H2O             5.551e+01   1.000e+00     1.744    -0.000     0.000     18.07
Ca            6.000e-04
   Ca+2            6.000e-04   4.983e-04    -3.222    -3.302    -0.081    -18.10
   CaOH+           8.670e-10   8.270e-10    -9.062    -9.082    -0.020     (0)  
Cl            1.200e-03
   Cl-             1.200e-03   1.144e-03    -2.921    -2.941    -0.021     18.08
H(0)          1.415e-25
   H2              7.077e-26   7.079e-26   -25.150   -25.150     0.000     28.61
O(0)          0.000e+00
   O2              0.000e+00   0.000e+00   -42.080   -42.080     0.000     30.40

------------------------------Saturation indices-------------------------------

  Phase               SI** log IAP   log K(298 K,   1 atm)

  H2(g)           -22.05    -25.15   -3.10  H2
  H2O(g)           -1.50     -0.00    1.50  H2O
  O2(g)           -39.19    -42.08   -2.89  O2

**For a gas, SI = log10(fugacity). Fugacity = pressure * phi / 1 atm.
  For ideal gases, phi = 1.

Using mix 1.	
Using exchange 1.	Exchange assemblage after simulation 2.

Mixture 1.	

	  0.000e+00 Solution 0	Solution after simulation 2.                           
	  9.924e-01 Solution 1	Solution after simulation 2.                           
	  7.560e-03 Solution 2	Solution after simulation 2.                           

-----------------------------Exchange composition------------------------------

X                1.100e-03 mol

	                               Equiv-    Equivalent      Log 
	Species             Moles      alents      Fraction     Gamma

	CaX2              5.242e-04   1.048e-03   9.530e-01    -0.069
	NaX               5.165e-05   5.165e-05   4.695e-02    -0.017
	NH4X              2.350e-55   2.350e-55   2.137e-52    -0.018

-----------------------------Solution composition------------------------------

	Elements           Molality       Moles

	Ca                7.525e-05   7.525e-05
	Cl                1.191e-03   1.191e-03
	N                 7.560e-06   7.560e-06
	Na                1.048e-03   1.048e-03

----------------------------Description of solution----------------------------

                                       pH  =   7.003      Charge balance
                                       pe  =  12.231      Adjusted to redox equilibrium
      Specific Conductance (µS/cm,  25°C)  = 148
                          Density (g/cm³)  =   0.99709
                               Volume (L)  =   1.00298
                        Activity of water  =   1.000
                 Ionic strength (mol/kgw)  =   1.274e-03
                       Mass of water (kg)  =   1.000e+00
                 Total alkalinity (eq/kg)  =   3.042e-09
                         Temperature (°C)  =  25.00
                  Electrical balance (eq)  =  -2.466e-09
 Percent error, 100*(Cat-|An|)/(Cat+|An|)  =  -0.00
                               Iterations  =   8
                                  Total H  = 1.110124e+02
                                  Total O  = 5.550624e+01

----------------------------Distribution of species----------------------------

                                               Log       Log       Log    mole V
   Species          Molality    Activity  Molality  Activity     Gamma   cm³/mol

   OH-             1.061e-07   1.019e-07    -6.974    -6.992    -0.017     -4.10
   H+              1.032e-07   9.932e-08    -6.986    -7.003    -0.016      0.00
   H2O             5.551e+01   1.000e+00     1.744    -0.000     0.000     18.07
Ca            7.525e-05
   Ca+2            7.525e-05   6.426e-05    -4.123    -4.192    -0.069    -18.13
   CaOH+           1.118e-10   1.074e-10    -9.952    -9.969    -0.017     (0)  
Cl            1.191e-03
   Cl-             1.191e-03   1.144e-03    -2.924    -2.942    -0.017     18.08
H(0)          0.000e+00
   H2              0.000e+00   0.000e+00   -41.618   -41.618     0.000     28.61
N(-3)         0.000e+00
   NH4+            0.000e+00   0.000e+00   -53.922   -53.939    -0.018     17.97
   NH3             0.000e+00   0.000e+00   -56.181   -56.181     0.000     24.42
N(0)          5.725e-10
   N2              2.863e-10   2.863e-10    -9.543    -9.543     0.000     29.29
N(3)          9.565e-16
   NO2-            9.565e-16   9.185e-16   -15.019   -15.037    -0.018     24.97
N(5)          7.559e-06
   NO3-            7.559e-06   7.259e-06    -5.122    -5.139    -0.018     29.49
Na            1.048e-03
   Na+             1.048e-03   1.007e-03    -2.980    -2.997    -0.017     -1.47
   NaOH            1.026e-20   1.026e-20   -19.989   -19.989     0.000     (0)  
O(0)          1.434e-09
   O2              7.169e-10   7.172e-10    -9.145    -9.144     0.000     30.40

------------------------------Saturation indices-------------------------------

  Phase               SI** log IAP   log K(298 K,   1 atm)

  H2(g)           -38.52    -41.62   -3.10  H2
  H2O(g)           -1.50     -0.00    1.50  H2O
  Halite           -7.51     -5.94    1.57  NaCl
  N2(g)            -6.37     -9.54   -3.18  N2
  NH3(g)          -57.98    -56.18    1.80  NH3
  O2(g)            -6.25     -9.14   -2.89  O2

**For a gas, SI = log10(fugacity). Fugacity = pressure * phi / 1 atm.
  For ideal gases, phi = 1.

Using mix 2.	
Using exchange 2.	Exchange assemblage after simulation 2.

Mixture 2.	

	  7.560e-03 Solution 1	Solution after simulation 2.                           
	  9.849e-01 Solution 2	Solution after simulation 2.                           
	  7.560e-03 Solution 3	Solution after simulation 2.                           

-----------------------------Exchange composition------------------------------

X                1.100e-03 mol

	                               Equiv-    Equivalent      Log 
	Species             Moles      alents      Fraction     Gamma

[...]

	CaX2              5.500e-04   1.100e-03   1.000e+00    -0.081

-----------------------------Solution composition------------------------------

	Elements           Molality       Moles

	Ca                6.000e-04   6.000e-04
	Cl                1.200e-03   1.200e-03

----------------------------Description of solution----------------------------

                                       pH  =   7.000      Charge balance
                                       pe  =   4.107      Adjusted to redox equilibrium
      Specific Conductance (µS/cm,  25°C)  = 152
                          Density (g/cm³)  =   0.99710
                               Volume (L)  =   1.00298
                        Activity of water  =   1.000
                 Ionic strength (mol/kgw)  =   1.800e-03
                       Mass of water (kg)  =   1.000e+00
                 Total alkalinity (eq/kg)  =   2.477e-09
                         Temperature (°C)  =  25.00
                  Electrical balance (eq)  =  -2.477e-09
 Percent error, 100*(Cat-|An|)/(Cat+|An|)  =  -0.00
                               Iterations  =   0
                                  Total H  = 1.110124e+02
                                  Total O  = 5.550622e+01

----------------------------Distribution of species----------------------------

                                               Log       Log       Log    mole V
   Species          Molality    Activity  Molality  Activity     Gamma   cm³/mol

   OH-             1.061e-07   1.012e-07    -6.974    -6.995    -0.021     -4.10
   H+              1.045e-07   1.000e-07    -6.981    -7.000    -0.019      0.00
   H2O             5.551e+01   1.000e+00     1.744    -0.000     0.000     18.07
Ca            6.000e-04
   Ca+2            6.000e-04   4.983e-04    -3.222    -3.302    -0.081    -18.10
   CaOH+           8.670e-10   8.270e-10    -9.062    -9.082    -0.020     (0)  
Cl            1.200e-03
   Cl-             1.200e-03   1.144e-03    -2.921    -2.941    -0.021     18.08
H(0)          8.661e-26
   H2              4.330e-26   4.332e-26   -25.363   -25.363     0.000     28.61
O(0)          0.000e+00
   O2              0.000e+00   0.000e+00   -41.654   -41.653     0.000     30.40

------------------------------Saturation indices-------------------------------

  Phase               SI** log IAP   log K(298 K,   1 atm)

  H2(g)           -22.26    -25.36   -3.10  H2
  H2O(g)           -1.50     -0.00    1.50  H2O
  O2(g)           -38.76    -41.65   -2.89  O2

**For a gas, SI = log10(fugacity). Fugacity = pressure * phi / 1 atm.
  For ideal gases, phi = 1.

Using mix 13.	
Using exchange 13.	Exchange assemblage after simulation 2.

Mixture 13.	

	  7.560e-03 Solution 12	Solution after simulation 2.                           
	  9.849e-01 Solution 13	Solution after simulation 2.                           
	  7.560e-03 Solution 14	Solution after simulation 2.                           

-----------------------------Exchange composition------------------------------

X                1.100e-03 mol

	                               Equiv-    Equivalent      Log 
	Species             Moles      alents      Fraction     Gamma

	CaX2              5.500e-04   1.100e-03   1.000e+00    -0.081
	NaX               2.571e-25   2.571e-25   2.337e-22    -0.020

-----------------------------Solution composition------------------------------

	Elements           Molality       Moles

	Ca                6.000e-04   6.000e-04
	Cl                1.200e-03   1.200e-03
	Na                1.438e-23   1.438e-23

----------------------------Description of solution----------------------------

                                       pH  =   7.000      Charge balance
                                       pe  =  11.143      Adjusted to redox equilibrium
      Specific Conductance (µS/cm,  25°C)  = 152
                          Density (g/cm³)  =   0.99710
                               Volume (L)  =   1.00298
                        Activity of water  =   1.000
                 Ionic strength (mol/kgw)  =   1.800e-03
                       Mass of water (kg)  =   1.000e+00
                 Total alkalinity (eq/kg)  =   2.477e-09
                         Temperature (°C)  =  25.00
                  Electrical balance (eq)  =  -2.477e-09
 Percent error, 100*(Cat-|An|)/(Cat+|An|)  =  -0.00
                               Iterations  =   1
                                  Total H  = 1.110124e+02
                                  Total O  = 5.550622e+01

----------------------------Distribution of species----------------------------

                                               Log       Log       Log    mole V
   Species          Molality    Activity  Molality  Activity     Gamma   cm³/mol

   OH-             1.061e-07   1.012e-07    -6.974    -6.995    -0.021     -4.10
   H+              1.045e-07   1.000e-07    -6.981    -7.000    -0.019      0.00
   H2O             5.551e+01   1.000e+00     1.744    -0.000     0.000     18.07
Ca            6.000e-04
   Ca+2            6.000e-04   4.983e-04    -3.222    -3.302    -0.081    -18.10
   CaOH+           8.670e-10   8.270e-10    -9.062    -9.082    -0.020     (0)  
Cl            1.200e-03
   Cl-             1.200e-03   1.144e-03    -2.921    -2.941    -0.021     18.08
H(0)          7.337e-40
   H2              3.669e-40   3.670e-40   -39.435   -39.435     0.000     28.61
Na            1.438e-23
   Na+             1.438e-23   1.372e-23   -22.842   -22.863    -0.020     -1.46
   NaOH            1.388e-40   1.389e-40   -39.858   -39.857     0.000     (0)  
O(0)          6.186e-14
   O2              3.093e-14   3.094e-14   -13.510   -13.509     0.000     30.40

------------------------------Saturation indices-------------------------------

  Phase               SI** log IAP   log K(298 K,   1 atm)

  H2(g)           -36.33    -39.44   -3.10  H2
  H2O(g)           -1.50     -0.00    1.50  H2O
  Halite          -27.37    -25.80    1.57  NaCl
  O2(g)           -10.62    -13.51   -2.89  O2

**For a gas, SI = log10(fugacity). Fugacity = pressure * phi / 1 atm.
  For ideal gases, phi = 1.

Using mix 14.	
Using exchange 14.	Exchange assemblage after simulation 2.

Mixture 14.	

	  7.560e-03 Solution 13	Solution after simulation 2.                           
	  9.849e-01 Solution 14	Solution after simulation 2.                           
	  7.560e-03 Solution 15	Solution after simulation 2.                           

-----------------------------Exchange composition------------------------------

X                1.100e-03 mol

	                               Equiv-    Equivalent      Log 
	Species             Moles      alents      Fraction     Gamma

	CaX2              5.500e-04   1.100e-03   1.000e+00    -0.081
	NaX               2.484e-23   2.484e-23   2.258e-20    -0.020

-----------------------------Solution composition------------------------------

	Elements           Molality       Moles

	Ca                6.000e-04   6.000e-04
	Cl                1.200e-03   1.200e-03
	Na                1.390e-21   1.390e-21

----------------------------Description of solution----------------------------

                                       pH  =   7.000      Charge balance
                                       pe  =  11.192      Adjusted to redox equilibrium
      Specific Conductance (µS/cm,  25°C)  = 152
                          Density (g/cm³)  =   0.99710
                               Volume (L)  =   1.00298
                        Activity of water  =   1.000
                 Ionic strength (mol/kgw)  =   1.800e-03
                       Mass of water (kg)  =   1.000e+00
                 Total alkalinity (eq/kg)  =   2.477e-09
                         Temperature (°C)  =  25.00
                  Electrical balance (eq)  =  -2.477e-09
 Percent error, 100*(Cat-|An|)/(Cat+|An|)  =  -0.00
                               Iterations  =   3
                                  Total H  = 1.110124e+02
                                  Total O  = 5.550622e+01

----------------------------Distribution of species----------------------------

                                               Log       Log       Log    mole V
   Species          Molality    Activity  Molality  Activity     Gamma   cm³/mol

   OH-             1.061e-07   1.012e-07    -6.974    -6.995    -0.021     -4.10
   H+              1.045e-07   1.000e-07    -6.981    -7.000    -0.019      0.00
   H2O             5.551e+01   1.000e+00     1.744    -0.000     0.000     18.07
Ca            6.000e-04
   Ca+2            6.000e-04   4.983e-04    -3.222    -3.302    -0.081    -18.10
   CaOH+           8.670e-10   8.270e-10    -9.062    -9.082    -0.020     (0)  
Cl            1.200e-03
   Cl-             1.200e-03   1.144e-03    -2.921    -2.941    -0.021     18.08
H(0)          5.849e-40
   H2              2.925e-40   2.926e-40   -39.534   -39.534     0.000     28.61
Na            1.390e-21
   Na+             1.390e-21   1.326e-21   -20.857   -20.877    -0.020     -1.46
   NaOH            1.342e-38   1.342e-38   -37.872   -37.872     0.000     (0)  
O(0)          9.735e-14
   O2              4.867e-14   4.869e-14   -13.313   -13.313     0.000     30.40

------------------------------Saturation indices-------------------------------

  Phase               SI** log IAP   log K(298 K,   1 atm)

  H2(g)           -36.43    -39.53   -3.10  H2
  H2O(g)           -1.50     -0.00    1.50  H2O
  Halite          -25.39    -23.82    1.57  NaCl
  O2(g)           -10.42    -13.31   -2.89  O2

**For a gas, SI = log10(fugacity). Fugacity = pressure * phi / 1 atm.
  For ideal gases, phi = 1.

Using mix 15.	
Using exchange 15.	Exchange assemblage after simulation 2.

Mixture 15.	

	  7.560e-03 Solution 14	Solution after simulation 2.                           
	  9.849e-01 Solution 15	Solution after simulation 2.                           
	  7.560e-03 Solution 16	Solution after simulation 2.                           

-----------------------------Exchange composition------------------------------

X                1.100e-03 mol

	                               Equiv-    Equivalent      Log 
	Species             Moles      alents      Fraction     Gamma

	CaX2              5.500e-04   1.100e-03   1.000e+00    -0.081
	NaX               1.863e-21   1.863e-21   1.693e-18    -0.020

-----------------------------Solution composition------------------------------

	Elements           Molality       Moles

	Ca                6.000e-04   6.000e-04
	Cl                1.200e-03   1.200e-03
	Na                1.042e-19   1.042e-19

----------------------------Description of solution----------------------------

                                       pH  =   7.000      Charge balance
                                       pe  =  11.184      Adjusted to redox equilibrium
      Specific Conductance (µS/cm,  25°C)  = 152
                          Density (g/cm³)  =   0.99710
                               Volume (L)  =   1.00298
                        Activity of water  =   1.000
                 Ionic strength (mol/kgw)  =   1.800e-03
                       Mass of water (kg)  =   1.000e+00
                 Total alkalinity (eq/kg)  =   2.477e-09
                         Temperature (°C)  =  25.00
                  Electrical balance (eq)  =  -2.477e-09
 Percent error, 100*(Cat-|An|)/(Cat+|An|)  =  -0.00
                               Iterations  =   3
                                  Total H  = 1.110124e+02
                                  Total O  = 5.550622e+01

----------------------------Distribution of species----------------------------

                                               Log       Log       Log    mole V
   Species          Molality    Activity  Molality  Activity     Gamma   cm³/mol

   OH-             1.061e-07   1.012e-07    -6.974    -6.995    -0.021     -4.10
   H+              1.045e-07   1.000e-07    -6.981    -7.000    -0.019      0.00
   H2O             5.551e+01   1.000e+00     1.744    -0.000     0.000     18.07
Ca            6.000e-04
   Ca+2            6.000e-04   4.983e-04    -3.222    -3.302    -0.081    -18.10
   CaOH+           8.670e-10   8.270e-10    -9.062    -9.082    -0.020     (0)  
Cl            1.200e-03
   Cl-             1.200e-03   1.144e-03    -2.921    -2.941    -0.021     18.08
H(0)          6.075e-40
   H2              3.038e-40   3.039e-40   -39.517   -39.517     0.000     28.61
Na            1.042e-19
   Na+             1.042e-19   9.943e-20   -18.982   -19.002    -0.020     -1.46
   NaOH            1.006e-36   1.006e-36   -35.997   -35.997     0.000     (0)  
O(0)          9.024e-14
   O2              4.512e-14   4.514e-14   -13.346   -13.345     0.000     30.40

------------------------------Saturation indices-------------------------------

  Phase               SI** log IAP   log K(298 K,   1 atm)

  H2(g)           -36.42    -39.52   -3.10  H2
  H2O(g)           -1.50     -0.00    1.50  H2O
  Halite          -23.51    -21.94    1.57  NaCl
  O2(g)           -10.45    -13.35   -2.89  O2

**For a gas, SI = log10(fugacity). Fugacity = pressure * phi / 1 atm.
  For ideal gases, phi = 1.

Using mix 16.	
Using exchange 16.	Exchange assemblage after simulation 2.

Mixture 16.	

	  7.560e-03 Solution 15	Solution after simulation 2.                           
	  9.924e-01 Solution 16	Solution after simulation 2.                           
	  0.000e+00 Solution 17	Solution after simulation 2.                           

-----------------------------Exchange composition------------------------------

X                1.100e-03 mol

	                               Equiv-    Equivalent      Log 
	Species             Moles      alents      Fraction     Gamma

	CaX2              5.500e-04   1.100e-03   1.000e+00    -0.081
	NaX               7.383e-20   7.383e-20   6.712e-17    -0.020

-----------------------------Solution composition------------------------------

	Elements           Molality       Moles

	Ca                6.000e-04   6.000e-04
	Cl                1.200e-03   1.200e-03
	Na                4.130e-18   4.130e-18

----------------------------Description of solution----------------------------

                                       pH  =   7.000      Charge balance
                                       pe  =  11.242      Adjusted to redox equilibrium
      Specific Conductance (µS/cm,  25°C)  = 152
                          Density (g/cm³)  =   0.99710
                               Volume (L)  =   1.00298
                        Activity of water  =   1.000
                 Ionic strength (mol/kgw)  =   1.800e-03
                       Mass of water (kg)  =   1.000e+00
                 Total alkalinity (eq/kg)  =   2.477e-09
                         Temperature (°C)  =  25.00
                  Electrical balance (eq)  =  -2.477e-09
 Percent error, 100*(Cat-|An|)/(Cat+|An|)  =  -0.00
                               Iterations  =   2
                                  Total H  = 1.110124e+02
                                  Total O  = 5.550622e+01

----------------------------Distribution of species----------------------------

                                               Log       Log       Log    mole V
   Species          Molality    Activity  Molality  Activity     Gamma   cm³/mol

   OH-             1.061e-07   1.012e-07    -6.974    -6.995    -0.021     -4.10
   H+              1.045e-07   1.000e-07    -6.981    -7.000    -0.019      0.00
   H2O             5.551e+01   1.000e+00     1.744    -0.000     0.000     18.07
Ca            6.000e-04
   Ca+2            6.000e-04   4.983e-04    -3.222    -3.302    -0.081    -18.10
   CaOH+           8.670e-10   8.270e-10    -9.062    -9.082    -0.020     (0)  
Cl            1.200e-03
   Cl-             1.200e-03   1.144e-03    -2.921    -2.941    -0.021     18.08
H(0)          4.648e-40
   H2              2.324e-40   2.325e-40   -39.634   -39.634     0.000     28.61
Na            4.130e-18
   Na+             4.130e-18   3.941e-18   -17.384   -17.404    -0.020     -1.46
   NaOH            3.987e-35   3.989e-35   -34.399   -34.399     0.000     (0)  
O(0)          1.542e-13
   O2              7.710e-14   7.713e-14   -13.113   -13.113     0.000     30.40

------------------------------Saturation indices-------------------------------

  Phase               SI** log IAP   log K(298 K,   1 atm)

  H2(g)           -36.53    -39.63   -3.10  H2
  H2O(g)           -1.50     -0.00    1.50  H2O
  Halite          -21.92    -20.35    1.57  NaCl
  O2(g)           -10.22    -13.11   -2.89  O2

**For a gas, SI = log10(fugacity). Fugacity = pressure * phi / 1 atm.
  For ideal gases, phi = 1.

Using solution 17.	Solution after simulation 2.

-----------------------------Solution composition------------------------------

	Elements           Molality       Moles

	N                 1.000e-03   1.000e-03
	Na                1.000e-03   1.000e-03

----------------------------Description of solution----------------------------

                                       pH  =   7.019      Charge balance
                                       pe  =  12.516      Adjusted to redox equilibrium
      Specific Conductance (µS/cm,  25°C)  = 118
                          Density (g/cm³)  =   0.99710
                               Volume (L)  =   1.00299
                        Activity of water  =   1.000
                 Ionic strength (mol/kgw)  =   1.000e-03
                       Mass of water (kg)  =   1.000e+00
                 Total alkalinity (eq/kg)  =   1.062e-08
                         Temperature (°C)  =  25.00
                  Electrical balance (eq)  =  -1.459e-09
 Percent error, 100*(Cat-|An|)/(Cat+|An|)  =  -0.00
                               Iterations  =   2
                                  Total H  = 1.110124e+02
                                  Total O  = 5.550922e+01

----------------------------Distribution of species----------------------------

                                               Log       Log       Log    mole V
   Species          Molality    Activity  Molality  Activity     Gamma   cm³/mol

   OH-             1.096e-07   1.058e-07    -6.960    -6.976    -0.016     -4.11
   H+              9.900e-08   9.569e-08    -7.004    -7.019    -0.015      0.00
   H2O             5.551e+01   1.000e+00     1.744    -0.000     0.000     18.07
H(0)          0.000e+00
   H2              0.000e+00   0.000e+00   -42.220   -42.220     0.000     28.61
N(-3)         0.000e+00
   NH4+            0.000e+00   0.000e+00   -54.240   -54.256    -0.016     17.96
   NH3             0.000e+00   0.000e+00   -56.481   -56.481     0.000     24.42
N(0)          9.174e-09
   N2              4.587e-09   4.588e-09    -8.338    -8.338     0.000     29.29
N(3)          3.164e-14
   NO2-            3.164e-14   3.052e-14   -13.500   -13.515    -0.016     24.97
N(5)          1.000e-03
   NO3-            1.000e-03   9.646e-04    -3.000    -3.016    -0.016     29.49
Na            1.000e-03
   Na+             1.000e-03   9.652e-04    -3.000    -3.015    -0.015     -1.48
   NaOH            1.021e-20   1.021e-20   -19.991   -19.991     0.000     (0)  
O(0)          2.293e-08
   O2              1.147e-08   1.147e-08    -7.941    -7.940     0.000     30.40

------------------------------Saturation indices-------------------------------

  Phase               SI** log IAP   log K(298 K,   1 atm)

  H2(g)           -39.12    -42.22   -3.10  H2
  H2O(g)           -1.50     -0.00    1.50  H2O
  N2(g)            -5.16     -8.34   -3.18  N2
  NH3(g)          -58.28    -56.48    1.80  NH3
  O2(g)            -5.05     -7.94   -2.89  O2

**For a gas, SI = log10(fugacity). Fugacity = pressure * phi / 1 atm.
  For ideal gases, phi = 1.

------------------
End of simulation.
------------------

------------------------------------
Reading input data for simulation 3.
------------------------------------

-------------------------------
End of Run after 1.983 Seconds.
-------------------------------

