WARNING: Database file from DATABASE keyword is used; command line argument ignored.
   Input file: C:\Users\Eirik\Desktop\phreeqc-3.6.2-15100-x64\bin\Excercise(2).pqi
  Output file: C:\Users\Eirik\Desktop\phreeqc-3.6.2-15100-x64\bin\Excercise(2).pqi.out
Database file: C:\Users\Eirik\Desktop\phreeqc-3.6.2-15100-x64\database\phreeqc.dat

------------------
Reading data base.
------------------

	SOLUTION_MASTER_SPECIES
	SOLUTION_SPECIES
	PHASES
	EXCHANGE_MASTER_SPECIES
	EXCHANGE_SPECIES
	SURFACE_MASTER_SPECIES
	SURFACE_SPECIES
	RATES
	END
------------------------------------
Reading input data for simulation 1.
------------------------------------

	DATABASE C:\Program Files (x86)\USGS\Phreeqc Interactive 3.6.2-15100\database\phreeqc.dat
	SOLUTION 1-16 Initial solution in column
	  Na 1.0
	  K 0.2
	  N(5) 1.0 
	EXCHANGE 1-16
	  X 1.1e-3
	  equilibrate 1
	END
-------------------------------------------
Beginning of initial solution calculations.
-------------------------------------------

Initial solution 1.	Initial solution in column

-----------------------------Solution composition------------------------------

	Elements           Molality       Moles

	K                 2.000e-04   2.000e-04
	N(5)              1.000e-03   1.000e-03
	Na                1.000e-03   1.000e-03

----------------------------Description of solution----------------------------

                                       pH  =   7.000    
                                       pe  =   4.000    
      Specific Conductance (µS/cm,  25°C)  = 132
                          Density (g/cm³)  =   0.99711
                               Volume (L)  =   1.00300
                        Activity of water  =   1.000
                 Ionic strength (mol/kgw)  =   1.100e-03
                       Mass of water (kg)  =   1.000e+00
                 Total alkalinity (eq/kg)  =   1.471e-09
                         Temperature (°C)  =  25.00
                  Electrical balance (eq)  =   2.000e-04
 Percent error, 100*(Cat-|An|)/(Cat+|An|)  =   9.09
                               Iterations  =   3
                                  Total H  = 1.110124e+02
                                  Total O  = 5.550922e+01

----------------------------Distribution of species----------------------------

                                               Log       Log       Log    mole V
   Species          Molality    Activity  Molality  Activity     Gamma   cm³/mol

   OH-             1.051e-07   1.012e-07    -6.978    -6.995    -0.016     -4.11
   H+              1.036e-07   1.000e-07    -6.985    -7.000    -0.015      0.00
   H2O             5.551e+01   1.000e+00     1.744    -0.000     0.000     18.07
H(0)          1.416e-25
   H2              7.078e-26   7.079e-26   -25.150   -25.150     0.000     28.61
K             2.000e-04
   K+              2.000e-04   1.926e-04    -3.699    -3.715    -0.016      9.01
N(5)          1.000e-03
   NO3-            1.000e-03   9.630e-04    -3.000    -3.016    -0.016     29.49
Na            1.000e-03
   Na+             1.000e-03   9.636e-04    -3.000    -3.016    -0.016     -1.48
   NaOH            9.750e-21   9.753e-21   -20.011   -20.011     0.000     (0)  
O(0)          0.000e+00
   O2              0.000e+00   0.000e+00   -42.080   -42.080     0.000     30.40

------------------------------Saturation indices-------------------------------

  Phase               SI** log IAP   log K(298 K,   1 atm)

  H2(g)           -22.05    -25.15   -3.10  H2
  H2O(g)           -1.50     -0.00    1.50  H2O
  O2(g)           -39.19    -42.08   -2.89  O2

**For a gas, SI = log10(fugacity). Fugacity = pressure * phi / 1 atm.
  For ideal gases, phi = 1.

-------------------------------------------------------
Beginning of initial exchange-composition calculations.
-------------------------------------------------------

Exchange 1.	

X                1.100e-03 mol

	                               Equiv-    Equivalent      Log 
	Species             Moles      alents      Fraction     Gamma

	KX                5.507e-04   5.507e-04   5.006e-01    -0.016
	NaX               5.493e-04   5.493e-04   4.994e-01    -0.016

-----------------------------------------
Beginning of batch-reaction calculations.
-----------------------------------------

Reaction step 1.

Using solution 1.	Initial solution in column
Using exchange 1.	Exchange assemblage after simulation 1.

-----------------------------Exchange composition------------------------------

X                1.100e-03 mol

	                               Equiv-    Equivalent      Log 
	Species             Moles      alents      Fraction     Gamma

	KX                5.507e-04   5.507e-04   5.006e-01    -0.016
	NaX               5.493e-04   5.493e-04   4.994e-01    -0.016
	NH4X              1.213e-54   1.213e-54   1.103e-51     0.000

-----------------------------Solution composition------------------------------

	Elements           Molality       Moles

	K                 2.000e-04   2.000e-04
	N                 1.000e-03   1.000e-03
	Na                1.000e-03   1.000e-03

----------------------------Description of solution----------------------------

                                       pH  =   7.019      Charge balance
                                       pe  =  12.516      Adjusted to redox equilibrium
      Specific Conductance (µS/cm,  25°C)  = 132
                          Density (g/cm³)  =   0.99711
                               Volume (L)  =   1.00300
                        Activity of water  =   1.000
                 Ionic strength (mol/kgw)  =   1.100e-03
                       Mass of water (kg)  =   1.000e+00
                 Total alkalinity (eq/kg)  =   1.064e-08
                         Temperature (°C)  =  25.00
                  Electrical balance (eq)  =   2.000e-04
 Percent error, 100*(Cat-|An|)/(Cat+|An|)  =   9.09
                               Iterations  =  22
                                  Total H  = 1.110124e+02
                                  Total O  = 5.550922e+01

----------------------------Distribution of species----------------------------

                                               Log       Log       Log    mole V
   Species          Molality    Activity  Molality  Activity     Gamma   cm³/mol

   OH-             1.098e-07   1.058e-07    -6.959    -6.976    -0.016     -4.11
   H+              9.916e-08   9.571e-08    -7.004    -7.019    -0.015      0.00
   H2O             5.551e+01   1.000e+00     1.744    -0.000     0.000     18.07
H(0)          0.000e+00
   H2              0.000e+00   0.000e+00   -42.220   -42.220     0.000     28.61
K             2.000e-04
   K+              2.000e-04   1.926e-04    -3.699    -3.715    -0.016      9.01
N(-3)         0.000e+00
   NH4+            0.000e+00   0.000e+00   -54.239   -54.256    -0.016     17.96
   NH3             0.000e+00   0.000e+00   -56.481   -56.481     0.000     24.42
N(0)          9.165e-09
   N2              4.583e-09   4.584e-09    -8.339    -8.339     0.000     29.29
N(3)          3.165e-14
   NO2-            3.165e-14   3.048e-14   -13.500   -13.516    -0.016     24.97
N(5)          1.000e-03
   NO3-            1.000e-03   9.630e-04    -3.000    -3.016    -0.016     29.49
Na            1.000e-03
   Na+             1.000e-03   9.636e-04    -3.000    -3.016    -0.016     -1.48
   NaOH            1.019e-20   1.019e-20   -19.992   -19.992     0.000     (0)  
O(0)          2.291e-08
   O2              1.146e-08   1.146e-08    -7.941    -7.941     0.000     30.40

------------------------------Saturation indices-------------------------------

  Phase               SI** log IAP   log K(298 K,   1 atm)

  H2(g)           -39.12    -42.22   -3.10  H2
  H2O(g)           -1.50     -0.00    1.50  H2O
  N2(g)            -5.16     -8.34   -3.18  N2
  NH3(g)          -58.28    -56.48    1.80  NH3
  O2(g)            -5.05     -7.94   -2.89  O2

**For a gas, SI = log10(fugacity). Fugacity = pressure * phi / 1 atm.
  For ideal gases, phi = 1.

------------------
End of simulation.
------------------

------------------------------------
Reading input data for simulation 2.
------------------------------------

	SOLUTION 0 Displacing solution, CaCl2
	  Ca 0.6
	  Cl 1.2
	END
-------------------------------------------
Beginning of initial solution calculations.
-------------------------------------------

Initial solution 0.	Displacing solution, CaCl2

-----------------------------Solution composition------------------------------

	Elements           Molality       Moles

	Ca                6.000e-04   6.000e-04
	Cl                1.200e-03   1.200e-03

----------------------------Description of solution----------------------------

                                       pH  =   7.000    
                                       pe  =   4.000    
      Specific Conductance (µS/cm,  25°C)  = 152
                          Density (g/cm³)  =   0.99710
                               Volume (L)  =   1.00298
                        Activity of water  =   1.000
                 Ionic strength (mol/kgw)  =   1.800e-03
                       Mass of water (kg)  =   1.000e+00
                 Total alkalinity (eq/kg)  =   2.477e-09
                         Temperature (°C)  =  25.00
                  Electrical balance (eq)  =  -2.477e-09
 Percent error, 100*(Cat-|An|)/(Cat+|An|)  =  -0.00
                               Iterations  =   4
                                  Total H  = 1.110124e+02
                                  Total O  = 5.550622e+01

----------------------------Distribution of species----------------------------

                                               Log       Log       Log    mole V
   Species          Molality    Activity  Molality  Activity     Gamma   cm³/mol

   OH-             1.061e-07   1.012e-07    -6.974    -6.995    -0.021     -4.10
   H+              1.045e-07   1.000e-07    -6.981    -7.000    -0.019      0.00
   H2O             5.551e+01   1.000e+00     1.744    -0.000     0.000     18.07
Ca            6.000e-04
   Ca+2            6.000e-04   4.983e-04    -3.222    -3.302    -0.081    -18.10
   CaOH+           8.670e-10   8.270e-10    -9.062    -9.082    -0.020     (0)  
Cl            1.200e-03
   Cl-             1.200e-03   1.144e-03    -2.921    -2.941    -0.021     18.08
H(0)          1.415e-25
   H2              7.077e-26   7.079e-26   -25.150   -25.150     0.000     28.61
O(0)          0.000e+00
   O2              0.000e+00   0.000e+00   -42.080   -42.080     0.000     30.40

------------------------------Saturation indices-------------------------------

  Phase               SI** log IAP   log K(298 K,   1 atm)

  H2(g)           -22.05    -25.15   -3.10  H2
  H2O(g)           -1.50     -0.00    1.50  H2O
  O2(g)           -39.19    -42.08   -2.89  O2

**For a gas, SI = log10(fugacity). Fugacity = pressure * phi / 1 atm.
  For ideal gases, phi = 1.

------------------
End of simulation.
------------------

------------------------------------
Reading input data for simulation 3.
------------------------------------

	PRINT 
	reset false # suspend output
WARNING: Cell-lengths were read for 1 cells. Last value is used till cell 16.
WARNING: Dispersivities were read for 1 cells. Last value is used till cell 16.
--------------------------------
End of Run after 55.867 Seconds.
--------------------------------

