   Input file: s1.phr
  Output file: s1.phr.out
Database file: C:\Users\Eirik\Desktop\phreeqc-3.6.2-15100-x64\database\phreeqc.dat

------------------
Reading data base.
------------------

	SOLUTION_MASTER_SPECIES
	SOLUTION_SPECIES
	PHASES
	EXCHANGE_MASTER_SPECIES
	EXCHANGE_SPECIES
	SURFACE_MASTER_SPECIES
	SURFACE_SPECIES
	RATES
	END
------------------------------------
Reading input data for simulation 1.
------------------------------------

	Database file: C:\Users\Eirik\Desktop\phreeqc-3.6.2-15100-x64\database\phreeqc.dat
	Solution 1	#solution 1, 1mmol/kgw
		units mmol/L
		Na	1
	USER_PRINT	#prints ppm for Na+ to the phreeqc output file 
		10 REM convert mol to ppm
		20 PRINT "Sodium" MOL("Na+")*22.989*1000
	Solution 2	#solution 2, 2mmol/kgw
		units mmol/L
		Na	2
	USER_PRINT	#prints ppm for Na+ to the phreeqc output file
		10 REM convert mol to ppm
		20 PRINT "Sodium" MOL("Na+")*22.989*1000
	Solution 3	#solution 3, 3mmol/kgw
		units mmol/L
		Na	3
	USER_PRINT	#prints ppm for Na+ to the phreeqc output file
		10 REM convert mol to ppm
		20 PRINT "Sodium" MOL("Na+")*22.989*1000
	Solution 4	#solution 4, 4mmol/kgw
		units mmol/L
		Na	4
	USER_PRINT	#prints ppm for Na+ to the phreeqc output file
		10 REM convert mol to ppm
		20 PRINT "Sodium" MOL("Na+")*22.989*1000
	END
-------------------------------------------
Beginning of initial solution calculations.
-------------------------------------------

Initial solution 1.	

----------------------------------User print-----------------------------------

Sodium   2.2990e+01 

-----------------------------Solution composition------------------------------

	Elements           Molality       Moles

	Na                1.000e-03   1.000e-03

----------------------------Description of solution----------------------------

                                       pH  =   7.000    
                                       pe  =   4.000    
      Specific Conductance (µS/cm,  25°C)  = 49
                          Density (g/cm³)  =   0.99707
                               Volume (L)  =   1.00296
                        Activity of water  =   1.000
                 Ionic strength (mol/kgw)  =   5.001e-04
                       Mass of water (kg)  =   1.000e+00
                 Total alkalinity (eq/kg)  =   1.345e-09
                         Temperature (°C)  =  25.00
                  Electrical balance (eq)  =   1.000e-03
 Percent error, 100*(Cat-|An|)/(Cat+|An|)  =  99.98
                               Iterations  =   3
                                  Total H  = 1.110124e+02
                                  Total O  = 5.550622e+01

----------------------------Distribution of species----------------------------

                                               Log       Log       Log    mole V
   Species          Molality    Activity  Molality  Activity     Gamma   cm³/mol

   OH-             1.038e-07   1.012e-07    -6.984    -6.995    -0.011     -4.12
   H+              1.025e-07   1.000e-07    -6.989    -7.000    -0.011      0.00
   H2O             5.551e+01   1.000e+00     1.744    -0.000     0.000     18.07
H(0)          1.416e-25
   H2              7.079e-26   7.079e-26   -25.150   -25.150     0.000     28.61
Na            1.000e-03
   Na+             1.000e-03   9.749e-04    -3.000    -3.011    -0.011     -1.49
   NaOH            9.867e-21   9.868e-21   -20.006   -20.006     0.000     (0)  
O(0)          0.000e+00
   O2              0.000e+00   0.000e+00   -42.080   -42.080     0.000     30.40

------------------------------Saturation indices-------------------------------

  Phase               SI** log IAP   log K(298 K,   1 atm)

  H2(g)           -22.05    -25.15   -3.10  H2
  H2O(g)           -1.50     -0.00    1.50  H2O
  O2(g)           -39.19    -42.08   -2.89  O2

**For a gas, SI = log10(fugacity). Fugacity = pressure * phi / 1 atm.
  For ideal gases, phi = 1.

Initial solution 2.	

----------------------------------User print-----------------------------------

Sodium   4.5980e+01 

-----------------------------Solution composition------------------------------

	Elements           Molality       Moles

	Na                2.000e-03   2.000e-03

----------------------------Description of solution----------------------------

                                       pH  =   7.000    
                                       pe  =   4.000    
      Specific Conductance (µS/cm,  25°C)  = 97
                          Density (g/cm³)  =   0.99709
                               Volume (L)  =   1.00296
                        Activity of water  =   1.000
                 Ionic strength (mol/kgw)  =   1.000e-03
                       Mass of water (kg)  =   1.000e+00
                 Total alkalinity (eq/kg)  =   1.451e-09
                         Temperature (°C)  =  25.00
                  Electrical balance (eq)  =   2.000e-03
 Percent error, 100*(Cat-|An|)/(Cat+|An|)  =  99.99
                               Iterations  =   3 (6 overall)
                                  Total H  = 1.110124e+02
                                  Total O  = 5.550622e+01

----------------------------Distribution of species----------------------------

                                               Log       Log       Log    mole V
   Species          Molality    Activity  Molality  Activity     Gamma   cm³/mol

   OH-             1.049e-07   1.012e-07    -6.979    -6.995    -0.016     -4.11
   H+              1.035e-07   1.000e-07    -6.985    -7.000    -0.015      0.00
   H2O             5.551e+01   1.000e+00     1.744    -0.000     0.000     18.07
H(0)          1.416e-25
   H2              7.078e-26   7.079e-26   -25.150   -25.150     0.000     28.61
Na            2.000e-03
   Na+             2.000e-03   1.930e-03    -2.699    -2.714    -0.015     -1.48
   NaOH            1.953e-20   1.954e-20   -19.709   -19.709     0.000     (0)  
O(0)          0.000e+00
   O2              0.000e+00   0.000e+00   -42.080   -42.080     0.000     30.40

------------------------------Saturation indices-------------------------------

  Phase               SI** log IAP   log K(298 K,   1 atm)

  H2(g)           -22.05    -25.15   -3.10  H2
  H2O(g)           -1.50     -0.00    1.50  H2O
  O2(g)           -39.19    -42.08   -2.89  O2

**For a gas, SI = log10(fugacity). Fugacity = pressure * phi / 1 atm.
  For ideal gases, phi = 1.

Initial solution 3.	

----------------------------------User print-----------------------------------

Sodium   6.8972e+01 

-----------------------------Solution composition------------------------------

	Elements           Molality       Moles

	Na                3.000e-03   3.000e-03

----------------------------Description of solution----------------------------

                                       pH  =   7.000    
                                       pe  =   4.000    
      Specific Conductance (µS/cm,  25°C)  = 145
                          Density (g/cm³)  =   0.99712
                               Volume (L)  =   1.00296
                        Activity of water  =   1.000
                 Ionic strength (mol/kgw)  =   1.500e-03
                       Mass of water (kg)  =   1.000e+00
                 Total alkalinity (eq/kg)  =   1.550e-09
                         Temperature (°C)  =  25.00
                  Electrical balance (eq)  =   3.000e-03
 Percent error, 100*(Cat-|An|)/(Cat+|An|)  =  99.99
                               Iterations  =   3 (9 overall)
                                  Total H  = 1.110124e+02
                                  Total O  = 5.550622e+01

----------------------------Distribution of species----------------------------

                                               Log       Log       Log    mole V
   Species          Molality    Activity  Molality  Activity     Gamma   cm³/mol

   OH-             1.057e-07   1.012e-07    -6.976    -6.995    -0.019     -4.10
   H+              1.042e-07   1.000e-07    -6.982    -7.000    -0.018      0.00
   H2O             5.551e+01   9.999e-01     1.744    -0.000     0.000     18.07
H(0)          1.415e-25
   H2              7.077e-26   7.079e-26   -25.150   -25.150     0.000     28.61
Na            3.000e-03
   Na+             3.000e-03   2.874e-03    -2.523    -2.542    -0.019     -1.47
   NaOH            2.908e-20   2.909e-20   -19.536   -19.536     0.000     (0)  
O(0)          0.000e+00
   O2              0.000e+00   0.000e+00   -42.080   -42.080     0.000     30.40

------------------------------Saturation indices-------------------------------

  Phase               SI** log IAP   log K(298 K,   1 atm)

  H2(g)           -22.05    -25.15   -3.10  H2
  H2O(g)           -1.50     -0.00    1.50  H2O
  O2(g)           -39.19    -42.08   -2.89  O2

**For a gas, SI = log10(fugacity). Fugacity = pressure * phi / 1 atm.
  For ideal gases, phi = 1.

Initial solution 4.	

----------------------------------User print-----------------------------------

Sodium   9.1964e+01 

-----------------------------Solution composition------------------------------

	Elements           Molality       Moles

	Na                4.000e-03   4.000e-03

----------------------------Description of solution----------------------------

                                       pH  =   7.000    
                                       pe  =   4.000    
      Specific Conductance (µS/cm,  25°C)  = 193
                          Density (g/cm³)  =   0.99714
                               Volume (L)  =   1.00296
                        Activity of water  =   1.000
                 Ionic strength (mol/kgw)  =   2.000e-03
                       Mass of water (kg)  =   1.000e+00
                 Total alkalinity (eq/kg)  =   1.645e-09
                         Temperature (°C)  =  25.00
                  Electrical balance (eq)  =   4.000e-03
 Percent error, 100*(Cat-|An|)/(Cat+|An|)  =  99.99
                               Iterations  =   3 (12 overall)
                                  Total H  = 1.110124e+02
                                  Total O  = 5.550622e+01

----------------------------Distribution of species----------------------------

                                               Log       Log       Log    mole V
   Species          Molality    Activity  Molality  Activity     Gamma   cm³/mol

   OH-             1.064e-07   1.012e-07    -6.973    -6.995    -0.022     -4.09
   H+              1.047e-07   1.000e-07    -6.980    -7.000    -0.020      0.00
   H2O             5.551e+01   9.999e-01     1.744    -0.000     0.000     18.07
H(0)          1.415e-25
   H2              7.076e-26   7.079e-26   -25.150   -25.150     0.000     28.61
Na            4.000e-03
   Na+             4.000e-03   3.808e-03    -2.398    -2.419    -0.021     -1.46
   NaOH            3.853e-20   3.854e-20   -19.414   -19.414     0.000     (0)  
O(0)          0.000e+00
   O2              0.000e+00   0.000e+00   -42.080   -42.080     0.000     30.40

------------------------------Saturation indices-------------------------------

  Phase               SI** log IAP   log K(298 K,   1 atm)

  H2(g)           -22.05    -25.15   -3.10  H2
  H2O(g)           -1.50     -0.00    1.50  H2O
  O2(g)           -39.19    -42.08   -2.89  O2

**For a gas, SI = log10(fugacity). Fugacity = pressure * phi / 1 atm.
  For ideal gases, phi = 1.

------------------
End of simulation.
------------------

------------------------------------
Reading input data for simulation 2.
------------------------------------

-------------------------------
End of Run after 9.533 Seconds.
-------------------------------

