   Input file: s2.phr
  Output file: s2.phr.out
Database file: C:\Users\Eirik\Desktop\phreeqc-3.6.2-15100-x64\database\phreeqc.dat

------------------
Reading data base.
------------------

	SOLUTION_MASTER_SPECIES
	SOLUTION_SPECIES
	PHASES
	EXCHANGE_MASTER_SPECIES
	EXCHANGE_SPECIES
	SURFACE_MASTER_SPECIES
	SURFACE_SPECIES
	RATES
	END
------------------------------------
Reading input data for simulation 1.
------------------------------------

	Database file: C:\Users\Eirik\Desktop\phreeqc-3.6.2-15100-x64\database\phreeqc.dat
	Solution 1	#rainwater solution from table 2.2a
		units mmol/L
		Na	1
		Cl	1
	Solution 2	#rainwater solution from table 2.2a
		units mmol/L
		Na	2
		Cl	2
	Solution 3	#rainwater solution from table 2.2a
		units mmol/L
		Na	3
		Cl	3
	Solution 4	#rainwater solution from table 2.2a
		units mmol/L
		Na	4
		Cl	4
	SELECTED_OUTPUT 	#writes the solution, temperature, ph and total elemental concentrations of Na, Ca, Cl, SO4-2, NH4+ and NO3- to the file exercise1.sel
		file exercise1.xls
		reset false
		solution true
		ph true
	USER_PUNCH
		headings Cl(moles) Cl(ppm) Na(moles) Na(ppm)
		10 REM convert Cl from molality to ppm
		20 PUNCH TOTMOLE("Cl")
		30 PUNCH TOTMOLE("Cl")*35.453*1000
		40 PUNCH TOTMOLE("Na")
		50 PUNCH TOTMOLE("Na")*22.989*1000
	END
-------------------------------------------
Beginning of initial solution calculations.
-------------------------------------------

Initial solution 1.	

-----------------------------Solution composition------------------------------

	Elements           Molality       Moles

	Cl                1.000e-03   1.000e-03
	Na                1.000e-03   1.000e-03

----------------------------Description of solution----------------------------

                                       pH  =   7.000    
                                       pe  =   4.000    
      Specific Conductance (µS/cm,  25°C)  = 123
                          Density (g/cm³)  =   0.99708
                               Volume (L)  =   1.00298
                        Activity of water  =   1.000
                 Ionic strength (mol/kgw)  =   1.000e-03
                       Mass of water (kg)  =   1.000e+00
                 Total alkalinity (eq/kg)  =   1.451e-09
                         Temperature (°C)  =  25.00
                  Electrical balance (eq)  =  -1.451e-09
 Percent error, 100*(Cat-|An|)/(Cat+|An|)  =  -0.00
                               Iterations  =   3
                                  Total H  = 1.110124e+02
                                  Total O  = 5.550622e+01

----------------------------Distribution of species----------------------------

                                               Log       Log       Log    mole V
   Species          Molality    Activity  Molality  Activity     Gamma   cm³/mol

   OH-             1.049e-07   1.012e-07    -6.979    -6.995    -0.016     -4.11
   H+              1.035e-07   1.000e-07    -6.985    -7.000    -0.015      0.00
   H2O             5.551e+01   1.000e+00     1.744    -0.000     0.000     18.07
Cl            1.000e-03
   Cl-             1.000e-03   9.649e-04    -3.000    -3.016    -0.016     18.07
H(0)          1.416e-25
   H2              7.078e-26   7.079e-26   -25.150   -25.150     0.000     28.61
Na            1.000e-03
   Na+             1.000e-03   9.652e-04    -3.000    -3.015    -0.015     -1.48
   NaOH            9.767e-21   9.769e-21   -20.010   -20.010     0.000     (0)  
O(0)          0.000e+00
   O2              0.000e+00   0.000e+00   -42.080   -42.080     0.000     30.40

------------------------------Saturation indices-------------------------------

  Phase               SI** log IAP   log K(298 K,   1 atm)

  H2(g)           -22.05    -25.15   -3.10  H2
  H2O(g)           -1.50     -0.00    1.50  H2O
  Halite           -7.60     -6.03    1.57  NaCl
  O2(g)           -39.19    -42.08   -2.89  O2

**For a gas, SI = log10(fugacity). Fugacity = pressure * phi / 1 atm.
  For ideal gases, phi = 1.

Initial solution 2.	

-----------------------------Solution composition------------------------------

	Elements           Molality       Moles

	Cl                2.000e-03   2.000e-03
	Na                2.000e-03   2.000e-03

----------------------------Description of solution----------------------------

                                       pH  =   7.000    
                                       pe  =   4.000    
      Specific Conductance (µS/cm,  25°C)  = 244
                          Density (g/cm³)  =   0.99713
                               Volume (L)  =   1.00300
                        Activity of water  =   1.000
                 Ionic strength (mol/kgw)  =   2.000e-03
                       Mass of water (kg)  =   1.000e+00
                 Total alkalinity (eq/kg)  =   1.645e-09
                         Temperature (°C)  =  25.00
                  Electrical balance (eq)  =  -1.645e-09
 Percent error, 100*(Cat-|An|)/(Cat+|An|)  =  -0.00
                               Iterations  =   3 (6 overall)
                                  Total H  = 1.110124e+02
                                  Total O  = 5.550622e+01

----------------------------Distribution of species----------------------------

                                               Log       Log       Log    mole V
   Species          Molality    Activity  Molality  Activity     Gamma   cm³/mol

   OH-             1.064e-07   1.012e-07    -6.973    -6.995    -0.022     -4.09
   H+              1.047e-07   1.000e-07    -6.980    -7.000    -0.020      0.00
   H2O             5.551e+01   9.999e-01     1.744    -0.000     0.000     18.07
Cl            2.000e-03
   Cl-             2.000e-03   1.903e-03    -2.699    -2.721    -0.022     18.09
H(0)          1.415e-25
   H2              7.076e-26   7.079e-26   -25.150   -25.150     0.000     28.61
Na            2.000e-03
   Na+             2.000e-03   1.904e-03    -2.699    -2.720    -0.021     -1.46
   NaOH            1.926e-20   1.927e-20   -19.715   -19.715     0.000     (0)  
O(0)          0.000e+00
   O2              0.000e+00   0.000e+00   -42.080   -42.080     0.000     30.40

------------------------------Saturation indices-------------------------------

  Phase               SI** log IAP   log K(298 K,   1 atm)

  H2(g)           -22.05    -25.15   -3.10  H2
  H2O(g)           -1.50     -0.00    1.50  H2O
  Halite           -7.01     -5.44    1.57  NaCl
  O2(g)           -39.19    -42.08   -2.89  O2

**For a gas, SI = log10(fugacity). Fugacity = pressure * phi / 1 atm.
  For ideal gases, phi = 1.

Initial solution 3.	

-----------------------------Solution composition------------------------------

	Elements           Molality       Moles

	Cl                3.001e-03   3.001e-03
	Na                3.001e-03   3.001e-03

----------------------------Description of solution----------------------------

                                       pH  =   7.000    
                                       pe  =   4.000    
      Specific Conductance (µS/cm,  25°C)  = 363
                          Density (g/cm³)  =   0.99717
                               Volume (L)  =   1.00302
                        Activity of water  =   1.000
                 Ionic strength (mol/kgw)  =   3.001e-03
                       Mass of water (kg)  =   1.000e+00
                 Total alkalinity (eq/kg)  =   1.827e-09
                         Temperature (°C)  =  25.00
                  Electrical balance (eq)  =  -1.827e-09
 Percent error, 100*(Cat-|An|)/(Cat+|An|)  =  -0.00
                               Iterations  =   3 (9 overall)
                                  Total H  = 1.110124e+02
                                  Total O  = 5.550622e+01

----------------------------Distribution of species----------------------------

                                               Log       Log       Log    mole V
   Species          Molality    Activity  Molality  Activity     Gamma   cm³/mol

   OH-             1.075e-07   1.012e-07    -6.969    -6.995    -0.026     -4.08
   H+              1.057e-07   1.000e-07    -6.976    -7.000    -0.024      0.00
   H2O             5.551e+01   9.999e-01     1.744    -0.000     0.000     18.07
Cl            3.001e-03
   Cl-             3.001e-03   2.825e-03    -2.523    -2.549    -0.026     18.10
H(0)          1.415e-25
   H2              7.075e-26   7.079e-26   -25.150   -25.150     0.000     28.61
Na            3.001e-03
   Na+             3.001e-03   2.828e-03    -2.523    -2.549    -0.026     -1.44
   NaOH            2.860e-20   2.862e-20   -19.544   -19.543     0.000     (0)  
O(0)          0.000e+00
   O2              0.000e+00   0.000e+00   -42.080   -42.080     0.000     30.40

------------------------------Saturation indices-------------------------------

  Phase               SI** log IAP   log K(298 K,   1 atm)

  H2(g)           -22.05    -25.15   -3.10  H2
  H2O(g)           -1.50     -0.00    1.50  H2O
  Halite           -6.67     -5.10    1.57  NaCl
  O2(g)           -39.19    -42.08   -2.89  O2

**For a gas, SI = log10(fugacity). Fugacity = pressure * phi / 1 atm.
  For ideal gases, phi = 1.

Initial solution 4.	

-----------------------------Solution composition------------------------------

	Elements           Molality       Moles

	Cl                4.001e-03   4.001e-03
	Na                4.001e-03   4.001e-03

----------------------------Description of solution----------------------------

                                       pH  =   7.000    
                                       pe  =   4.000    
      Specific Conductance (µS/cm,  25°C)  = 482
                          Density (g/cm³)  =   0.99721
                               Volume (L)  =   1.00303
                        Activity of water  =   1.000
                 Ionic strength (mol/kgw)  =   4.001e-03
                       Mass of water (kg)  =   1.000e+00
                 Total alkalinity (eq/kg)  =   2.000e-09
                         Temperature (°C)  =  25.00
                  Electrical balance (eq)  =  -2.000e-09
 Percent error, 100*(Cat-|An|)/(Cat+|An|)  =  -0.00
                               Iterations  =   3 (12 overall)
                                  Total H  = 1.110124e+02
                                  Total O  = 5.550622e+01

----------------------------Distribution of species----------------------------

                                               Log       Log       Log    mole V
   Species          Molality    Activity  Molality  Activity     Gamma   cm³/mol

   OH-             1.085e-07   1.012e-07    -6.965    -6.995    -0.030     -4.07
   H+              1.065e-07   1.000e-07    -6.973    -7.000    -0.027      0.00
   H2O             5.551e+01   9.999e-01     1.744    -0.000     0.000     18.07
Cl            4.001e-03
   Cl-             4.001e-03   3.734e-03    -2.398    -2.428    -0.030     18.10
H(0)          1.415e-25
   H2              7.073e-26   7.079e-26   -25.150   -25.150     0.000     28.61
Na            4.001e-03
   Na+             4.001e-03   3.739e-03    -2.398    -2.427    -0.029     -1.43
   NaOH            3.780e-20   3.784e-20   -19.422   -19.422     0.000     (0)  
O(0)          0.000e+00
   O2              0.000e+00   0.000e+00   -42.081   -42.080     0.000     30.40

------------------------------Saturation indices-------------------------------

  Phase               SI** log IAP   log K(298 K,   1 atm)

  H2(g)           -22.05    -25.15   -3.10  H2
  H2O(g)           -1.50     -0.00    1.50  H2O
  Halite           -6.43     -4.86    1.57  NaCl
  O2(g)           -39.19    -42.08   -2.89  O2

**For a gas, SI = log10(fugacity). Fugacity = pressure * phi / 1 atm.
  For ideal gases, phi = 1.

------------------
End of simulation.
------------------

------------------------------------
Reading input data for simulation 2.
------------------------------------

-------------------------------
End of Run after 3.766 Seconds.
-------------------------------

