   Input file: C:\Users\Eirik\Desktop\phreeqc-3.6.2-15100-x64\bin\o.pqi.out
  Output file: C:\Users\Eirik\Desktop\phreeqc-3.6.2-15100-x64\bin\o.pqi.out.out
Database file: C:\Users\Eirik\Desktop\phreeqc-3.6.2-15100-x64\database\phreeqc.dat

------------------
Reading data base.
------------------

	SOLUTION_MASTER_SPECIES
	SOLUTION_SPECIES
	PHASES
	EXCHANGE_MASTER_SPECIES
	EXCHANGE_SPECIES
	SURFACE_MASTER_SPECIES
	SURFACE_SPECIES
	RATES
	END
------------------------------------
Reading input data for simulation 1.
------------------------------------

	WARNING: Database file from DATABASE keyword is used
WARNING: Unknown input, no keyword has been specified.
	 command line argument ignored.
WARNING: Unknown input, no keyword has been specified.
	   Input file: C:\Users\Eirik\Desktop\phreeqc-3.6.2-15100-x64\bin\o.pqi
WARNING: Unknown input, no keyword has been specified.
	  Output file: C:\Users\Eirik\Desktop\phreeqc-3.6.2-15100-x64\bin\o.pqi.out
WARNING: Unknown input, no keyword has been specified.
	Database file: C:\Users\Eirik\Desktop\phreeqc-3.6.2-15100-x64\database\phreeqc.dat
	------------------
WARNING: Unknown input, no keyword has been specified.
	Reading data base.
WARNING: 	Reading data base.

	------------------
WARNING: 	------------------

		SOLUTION_MASTER_SPECIES
		SOLUTION_SPECIES
		PHASES
		EXCHANGE_MASTER_SPECIES
		EXCHANGE_SPECIES
		SURFACE_MASTER_SPECIES
		SURFACE_SPECIES
		RATES
		END
------------------
End of simulation.
------------------

------------------------------------
Reading input data for simulation 2.
------------------------------------

	------------------------------------
WARNING: Unknown input, no keyword has been specified.
	Reading input data for simulation 1.
WARNING: Unknown input, no keyword has been specified.
	------------------------------------
WARNING: Unknown input, no keyword has been specified.
		Database file: C:\Users\Eirik\Desktop\phreeqc-3.6.2-15100-x64\database\phreeqc.dat
ERROR: DATABASE must be the first keyword in the input file.
		Solution 0
			units mmol/l
		    pH 12
			Ca 1
		    K 100
		    NO3 100
		    Cl 2 charge
		Surface 1
			Hfo_w	0.001	600	0.2
			Hfo_s		0.01
		REACTION 1
		    units mmol/l
			HNO3 50 
		    1 in 50
		END
WARNING: Could not find element in database, NO3.
	Concentration is set to zero.
ERROR: Calculations terminating due to input errors.
Stopping.
