WARNING: Database file from DATABASE keyword is used; command line argument ignored.
   Input file: C:\Users\Eirik\Desktop\phreeqc-3.6.2-15100-x64\bin\o2.pqi
  Output file: C:\Users\Eirik\Desktop\phreeqc-3.6.2-15100-x64\bin\o2.pqi.out
Database file: C:\Users\Eirik\Desktop\phreeqc-3.6.2-15100-x64\database\phreeqc.dat

------------------
Reading data base.
------------------

	SOLUTION_MASTER_SPECIES
	SOLUTION_SPECIES
	PHASES
	EXCHANGE_MASTER_SPECIES
	EXCHANGE_SPECIES
	SURFACE_MASTER_SPECIES
	SURFACE_SPECIES
	RATES
	END
------------------------------------
Reading input data for simulation 1.
------------------------------------

	Database file: C:\Users\Eirik\Desktop\phreeqc-3.6.2-15100-x64\database\phreeqc.dat
	SURFACE 1
	 Hfo_w  0.001 600 0.2     # -amount of sorption1      -specific site density     -mass of solid
	 Hfo_s  0.01
	SOLUTION 0             # Input Solution
	    units   mol/kgw
	    pH 12
		Cu 0.001
	    K 0.100
	    N(5) 0.100 charge
	    Cl 0.002
	REACTION
		HNO3 0.050 
	    1 in 500
	SELECTED_OUTPUT
	        file   exercise5.xls
	        si     Cu
	USER_PUNCH		#Writes Cu data (mol) to exercise5.xls
		headings Cu(moles)
		20 PUNCH TOTMOLE("Cu")
	USER_GRAPH
	     -headings  time Cu
	     -chart_title "Sorption of Copper"
	    -axis_titles "pH"                  "Sorbed Cu"
	     -start
	      10 Graph_x   -LA("H+")
		  20 Graph_y    0.001-TOTMOLE("Cu")
	-End
WARNING: Did not find phase, Cu.
-------------------------------------------
Beginning of initial solution calculations.
-------------------------------------------

Initial solution 0.	

-----------------------------Solution composition------------------------------

	Elements           Molality       Moles

	Cl                2.000e-03   2.000e-03
	Cu                1.000e-03   1.000e-03
	K                 1.000e-01   1.000e-01
	N(5)              8.463e-02   8.463e-02  Charge balance

----------------------------Description of solution----------------------------

                                       pH  =  12.000    
                                       pe  =   4.000    
      Specific Conductance (µS/cm,  25°C)  = 13764
                          Density (g/cm³)  =   1.00314
                               Volume (L)  =   1.00640
                        Activity of water  =   0.997
                 Ionic strength (mol/kgw)  =   1.000e-01
                       Mass of water (kg)  =   1.000e+00
                 Total alkalinity (eq/kg)  =   1.537e-02
                         Temperature (°C)  =  25.00
                  Electrical balance (eq)  =  -6.045e-14
 Percent error, 100*(Cat-|An|)/(Cat+|An|)  =  -0.00
                               Iterations  =   9
                                  Total H  = 1.110278e+02
                                  Total O  = 5.577547e+01

----------------------------Distribution of species----------------------------

                                               Log       Log       Log    mole V
   Species          Molality    Activity  Molality  Activity     Gamma   cm³/mol

   OH-             1.325e-02   1.009e-02    -1.878    -1.996    -0.118     -3.73
   H+              1.212e-12   1.000e-12   -11.917   -12.000    -0.083      0.00
   H2O             5.551e+01   9.966e-01     1.744    -0.001     0.000     18.07
Cl            2.000e-03
   Cl-             2.000e-03   1.533e-03    -2.699    -2.814    -0.115     18.34
   CuCl2-          2.250e-15   1.731e-15   -14.648   -14.762    -0.114     (0)  
   CuCl+           2.380e-16   1.831e-16   -15.623   -15.737    -0.114      0.95
   CuCl3-2         1.118e-17   4.206e-18   -16.951   -17.376    -0.425     (0)  
   CuCl2           1.473e-19   1.508e-19   -18.832   -18.822     0.010     31.02
   CuCl3-          1.066e-24   8.201e-25   -23.972   -24.086    -0.114     (0)  
   CuCl4-2         1.675e-29   6.302e-30   -28.776   -29.201    -0.425     (0)  
Cu(1)         5.388e-15
   Cu+             3.127e-15   2.328e-15   -14.505   -14.633    -0.128     (0)  
   CuCl2-          2.250e-15   1.731e-15   -14.648   -14.762    -0.114     (0)  
   CuCl3-2         1.118e-17   4.206e-18   -16.951   -17.376    -0.425     (0)  
Cu(2)         1.000e-03
   Cu(OH)2         8.997e-04   9.207e-04    -3.046    -3.036     0.010     (0)  
   Cu(OH)3-        7.077e-05   5.529e-05    -4.150    -4.257    -0.107     (0)  
   Cu(OH)4-2       2.952e-05   1.099e-05    -4.530    -4.959    -0.429     (0)  
   CuOH+           5.748e-10   4.422e-10    -9.240    -9.354    -0.114     (0)  
   Cu2(OH)2+2      2.297e-13   8.555e-14   -12.639   -13.068    -0.429     (0)  
   Cu+2            1.108e-13   4.437e-14   -12.955   -13.353    -0.397    -25.95
   CuCl+           2.380e-16   1.831e-16   -15.623   -15.737    -0.114      0.95
   CuCl2           1.473e-19   1.508e-19   -18.832   -18.822     0.010     31.02
   CuCl3-          1.066e-24   8.201e-25   -23.972   -24.086    -0.114     (0)  
   CuCl4-2         1.675e-29   6.302e-30   -28.776   -29.201    -0.425     (0)  
H(0)          1.384e-35
   H2              6.918e-36   7.079e-36   -35.160   -35.150     0.010     28.61
K             1.000e-01
   K+              1.000e-01   7.642e-02    -1.000    -1.117    -0.117      9.24
N(5)          8.463e-02
   NO3-            8.463e-02   6.376e-02    -1.073    -1.195    -0.123     29.77
O(0)          1.615e-22
   O2              8.073e-23   8.261e-23   -22.093   -22.083     0.010     30.40

------------------------------Saturation indices-------------------------------

  Phase               SI** log IAP   log K(298 K,   1 atm)

  H2(g)           -32.05    -35.15   -3.10  H2
  H2O(g)           -1.50     -0.00    1.50  H2O
  O2(g)           -19.19    -22.08   -2.89  O2
  Sylvite          -4.83     -3.93    0.90  KCl

**For a gas, SI = log10(fugacity). Fugacity = pressure * phi / 1 atm.
  For ideal gases, phi = 1.

-----------------------------------------
Beginning of batch-reaction calculations.
-----------------------------------------

Reaction step 1.

Using solution 0.	
Using surface 1.	
Using reaction 1.	

Reaction 1.	

	  2.000e-03 moles of the following reaction have been added:

	                 Relative
	Reactant            moles

	HNO3                 0.05000

	                 Relative
	Element             moles
	H                    0.05000
	N                    0.05000
	O                    0.15000

------------------------------Surface composition------------------------------

Diffuse Double Layer Surface-Complexation Model

Hfo           
	 -1.302e-03  Surface charge, eq
	 -1.047e+00  sigma, C/m²
	 -2.074e-01  psi, V
	  8.073e+00  -F*psi/RT
	  3.207e+03  exp(-F*psi/RT)
	  6.000e+02  specific area, m²/g
	  1.200e+02  m² for   2.000e-01 g


Hfo_s         
	  1.000e-02  moles
	                                   Mole                     Log
	Species               Moles    Fraction    Molality    Molality

	Hfo_sOH           6.204e-03       0.620   6.205e-03      -2.207
	Hfo_sO-           2.434e-03       0.243   2.434e-03      -2.614
	Hfo_sOCu+         9.994e-04       0.100   9.995e-04      -3.000
	Hfo_sOH2+         3.623e-04       0.036   3.623e-04      -3.441

Hfo_w         
	  1.000e-03  moles
	                                   Mole                     Log
	Species               Moles    Fraction    Molality    Molality

	Hfo_wOH           6.889e-04       0.689   6.890e-04      -3.162
	Hfo_wO-           2.703e-04       0.270   2.703e-04      -3.568
	Hfo_wOH2+         4.023e-05       0.040   4.023e-05      -4.395
	Hfo_wOCu+         5.692e-07       0.001   5.692e-07      -6.245

-----------------------------Solution composition------------------------------

	Elements           Molality       Moles

	Cl                2.000e-03   2.000e-03
	Cu                1.576e-09   1.576e-09
	K                 1.000e-01   1.000e-01
	N                 8.473e-02   8.473e-02

----------------------------Description of solution----------------------------

                                       pH  =  12.030      Charge balance
                                       pe  =   6.327      Adjusted to redox equilibrium
      Specific Conductance (µS/cm,  25°C)  = 13819
                          Density (g/cm³)  =   1.00299
                               Volume (L)  =   1.00630
                        Activity of water  =   0.997
                 Ionic strength (mol/kgw)  =   9.935e-02
                       Mass of water (kg)  =   9.999e-01
                 Total alkalinity (eq/kg)  =   1.417e-02
                         Temperature (°C)  =  25.00
                  Electrical balance (eq)  =   1.302e-03
 Percent error, 100*(Cat-|An|)/(Cat+|An|)  =   0.66
                               Iterations  =  15
                                  Total H  = 1.110202e+02
                                  Total O  = 5.576477e+01

----------------------------Distribution of species----------------------------

                                               Log       Log       Log    mole V
   Species          Molality    Activity  Molality  Activity     Gamma   cm³/mol

   OH-             1.417e-02   1.080e-02    -1.849    -1.967    -0.118     -3.73
   H+              1.131e-12   9.339e-13   -11.947   -12.030    -0.083      0.00
   H2O             5.551e+01   9.966e-01     1.744    -0.001     0.000     18.07
Cl            2.000e-03
   Cl-             2.000e-03   1.534e-03    -2.699    -2.814    -0.115     18.34
   CuCl+           3.242e-22   2.495e-22   -21.489   -21.603    -0.114      0.95
   CuCl2-          1.445e-23   1.112e-23   -22.840   -22.954    -0.114     (0)  
   CuCl2           2.010e-25   2.056e-25   -24.697   -24.687     0.010     31.02
   CuCl3-2         7.174e-26   2.704e-26   -25.144   -25.568    -0.424     (0)  
   CuCl3-          1.454e-30   1.119e-30   -29.837   -29.951    -0.114     (0)  
   CuCl4-2         2.283e-35   8.607e-36   -34.641   -35.065    -0.424     (0)  
Cu(1)         3.457e-23
   Cu+             2.005e-23   1.494e-23   -22.698   -22.826    -0.128     (0)  
   CuCl2-          1.445e-23   1.112e-23   -22.840   -22.954    -0.114     (0)  
   CuCl3-2         7.174e-26   2.704e-26   -25.144   -25.568    -0.424     (0)  
Cu(2)         1.576e-09
   Cu(OH)2         1.405e-09   1.438e-09    -8.852    -8.842     0.010     (0)  
   Cu(OH)3-        1.183e-10   9.247e-11    -9.927   -10.034    -0.107     (0)  
   Cu(OH)4-2       5.277e-11   1.969e-11   -10.278   -10.706    -0.428     (0)  
   CuOH+           8.379e-16   6.449e-16   -15.077   -15.191    -0.114     (0)  
   Cu+2            1.506e-19   6.043e-20   -18.822   -19.219    -0.397    -25.95
   CuCl+           3.242e-22   2.495e-22   -21.489   -21.603    -0.114      0.95
   Cu2(OH)2+2      4.877e-25   1.820e-25   -24.312   -24.740    -0.428     (0)  
   CuCl2           2.010e-25   2.056e-25   -24.697   -24.687     0.010     31.02
   CuCl3-          1.454e-30   1.119e-30   -29.837   -29.951    -0.114     (0)  
   CuCl4-2         2.283e-35   8.607e-36   -34.641   -35.065    -0.424     (0)  
H(0)          2.679e-40
   H2              1.339e-40   1.370e-40   -39.873   -39.863     0.010     28.61
K             1.000e-01
   K+              1.000e-01   7.647e-02    -1.000    -1.116    -0.117      9.24
N(-3)         0.000e+00
   NH3             0.000e+00   0.000e+00   -50.261   -50.251     0.010     24.42
   NH4+            0.000e+00   0.000e+00   -52.909   -53.037    -0.128     18.17
N(0)          2.200e-03
   N2              1.100e-03   1.126e-03    -2.959    -2.949     0.010     29.29
N(3)          5.955e-10
   NO2-            5.955e-10   4.490e-10    -9.225    -9.348    -0.123     25.23
N(5)          8.253e-02
   NO3-            8.253e-02   6.222e-02    -1.083    -1.206    -0.123     29.77
O(0)          4.310e-13
   O2              2.155e-13   2.205e-13   -12.667   -12.657     0.010     30.40

------------------------------Saturation indices-------------------------------

  Phase               SI** log IAP   log K(298 K,   1 atm)

  H2(g)           -36.76    -39.86   -3.10  H2
  H2O(g)           -1.50     -0.00    1.50  H2O
  N2(g)             0.23     -2.95   -3.18  N2
  NH3(g)          -52.05    -50.25    1.80  NH3
  O2(g)            -9.76    -12.66   -2.89  O2
  Sylvite          -4.83     -3.93    0.90  KCl

**For a gas, SI = log10(fugacity). Fugacity = pressure * phi / 1 atm.
  For ideal gases, phi = 1.

Reaction step 2.

Using solution 0.	
Using surface 1.	
Using reaction 1.	

Reaction 1.	

	  4.000e-03 moles of the following reaction have been added:

	                 Relative
	Reactant            moles

	HNO3                 0.05000

	                 Relative
	Element             moles
	H                    0.05000
	N                    0.05000
	O                    0.15000

------------------------------Surface composition------------------------------

Diffuse Double Layer Surface-Complexation Model

Hfo           
	 -1.298e-03  Surface charge, eq
	 -1.044e+00  sigma, C/m²
	 -2.073e-01  psi, V
	  8.068e+00  -F*psi/RT
	  3.189e+03  exp(-F*psi/RT)
	  6.000e+02  specific area, m²/g
	  1.200e+02  m² for   2.000e-01 g


Hfo_s         
	  1.000e-02  moles
	                                   Mole                     Log
	Species               Moles    Fraction    Molality    Molality

	Hfo_sOH           6.206e-03       0.621   6.207e-03      -2.207
	Hfo_sO-           2.431e-03       0.243   2.432e-03      -2.614
	Hfo_sOCu+         9.994e-04       0.100   9.995e-04      -3.000
	Hfo_sOH2+         3.629e-04       0.036   3.629e-04      -3.440

Hfo_w         
	  1.000e-03  moles
	                                   Mole                     Log
	Species               Moles    Fraction    Molality    Molality

	Hfo_wOH           6.891e-04       0.689   6.892e-04      -3.162
	Hfo_wO-           2.700e-04       0.270   2.700e-04      -3.569
	Hfo_wOH2+         4.030e-05       0.040   4.030e-05      -4.395
	Hfo_wOCu+         5.692e-07       0.001   5.692e-07      -6.245

-----------------------------Solution composition------------------------------

	Elements           Molality       Moles

	Cl                2.000e-03   2.000e-03
	Cu                1.572e-09   1.572e-09
	K                 1.000e-01   1.000e-01
	N                 8.483e-02   8.483e-02

----------------------------Description of solution----------------------------

                                       pH  =  12.027      Charge balance
                                       pe  =   6.331      Adjusted to redox equilibrium
      Specific Conductance (µS/cm,  25°C)  = 13807
                          Density (g/cm³)  =   1.00299
                               Volume (L)  =   1.00631
                        Activity of water  =   0.997
                 Ionic strength (mol/kgw)  =   9.936e-02
                       Mass of water (kg)  =   9.999e-01
                 Total alkalinity (eq/kg)  =   1.408e-02
                         Temperature (°C)  =  25.00
                  Electrical balance (eq)  =   1.298e-03
 Percent error, 100*(Cat-|An|)/(Cat+|An|)  =   0.65
                               Iterations  =  15
                                  Total H  = 1.110203e+02
                                  Total O  = 5.576507e+01

----------------------------Distribution of species----------------------------

                                               Log       Log       Log    mole V
   Species          Molality    Activity  Molality  Activity     Gamma   cm³/mol

   OH-             1.408e-02   1.073e-02    -1.851    -1.969    -0.118     -3.73
   H+              1.139e-12   9.403e-13   -11.944   -12.027    -0.083      0.00
   H2O             5.551e+01   9.966e-01     1.744    -0.001     0.000     18.07
Cl            2.000e-03
   Cl-             2.000e-03   1.534e-03    -2.699    -2.814    -0.115     18.34
   CuCl+           3.281e-22   2.525e-22   -21.484   -21.598    -0.114      0.95
   CuCl2-          1.450e-23   1.116e-23   -22.839   -22.952    -0.114     (0)  
   CuCl2           2.034e-25   2.081e-25   -24.692   -24.682     0.010     31.02
   CuCl3-2         7.199e-26   2.714e-26   -25.143   -25.566    -0.424     (0)  
   CuCl3-          1.472e-30   1.133e-30   -29.832   -29.946    -0.114     (0)  
   CuCl4-2         2.311e-35   8.710e-36   -34.636   -35.060    -0.424     (0)  
Cu(1)         3.469e-23
   Cu+             2.012e-23   1.499e-23   -22.696   -22.824    -0.128     (0)  
   CuCl2-          1.450e-23   1.116e-23   -22.839   -22.952    -0.114     (0)  
   CuCl3-2         7.199e-26   2.714e-26   -25.143   -25.566    -0.424     (0)  
Cu(2)         1.572e-09
   Cu(OH)2         1.403e-09   1.435e-09    -8.853    -8.843     0.010     (0)  
   Cu(OH)3-        1.173e-10   9.168e-11    -9.931   -10.038    -0.107     (0)  
   Cu(OH)4-2       5.196e-11   1.939e-11   -10.284   -10.712    -0.428     (0)  
   CuOH+           8.422e-16   6.482e-16   -15.075   -15.188    -0.114     (0)  
   Cu+2            1.524e-19   6.116e-20   -18.817   -19.214    -0.397    -25.95
   CuCl+           3.281e-22   2.525e-22   -21.484   -21.598    -0.114      0.95
   Cu2(OH)2+2      4.928e-25   1.839e-25   -24.307   -24.735    -0.428     (0)  
   CuCl2           2.034e-25   2.081e-25   -24.692   -24.682     0.010     31.02
   CuCl3-          1.472e-30   1.133e-30   -29.832   -29.946    -0.114     (0)  
   CuCl4-2         2.311e-35   8.710e-36   -34.636   -35.060    -0.424     (0)  
H(0)          2.670e-40
   H2              1.335e-40   1.366e-40   -39.875   -39.865     0.010     28.61
K             1.000e-01
   K+              1.000e-01   7.647e-02    -1.000    -1.116    -0.117      9.24
N(-3)         0.000e+00
   NH3             0.000e+00   0.000e+00   -50.263   -50.253     0.010     24.42
   NH4+            0.000e+00   0.000e+00   -52.908   -53.036    -0.128     18.17
N(0)          2.200e-03
   N2              1.100e-03   1.126e-03    -2.959    -2.949     0.010     29.29
N(3)          5.943e-10
   NO2-            5.943e-10   4.481e-10    -9.226    -9.349    -0.123     25.23
N(5)          8.263e-02
   NO3-            8.263e-02   6.230e-02    -1.083    -1.206    -0.123     29.77
O(0)          4.338e-13
   O2              2.169e-13   2.219e-13   -12.664   -12.654     0.010     30.40

------------------------------Saturation indices-------------------------------

  Phase               SI** log IAP   log K(298 K,   1 atm)

  H2(g)           -36.76    -39.86   -3.10  H2
  H2O(g)           -1.50     -0.00    1.50  H2O
  N2(g)             0.23     -2.95   -3.18  N2
  NH3(g)          -52.05    -50.25    1.80  NH3
  O2(g)            -9.76    -12.65   -2.89  O2
  Sylvite          -4.83     -3.93    0.90  KCl

**For a gas, SI = log10(fugacity). Fugacity = pressure * phi / 1 atm.
  For ideal gases, phi = 1.

Reaction step 3.

Using solution 0.	
Using surface 1.	
Using reaction 1.	

Reaction 1.	

	  6.000e-03 moles of the following reaction have been added:

	                 Relative
	Reactant            moles

	HNO3                 0.05000

	                 Relative
	Element             moles
	H                    0.05000
	N                    0.05000
	O                    0.15000

------------------------------Surface composition------------------------------

Diffuse Double Layer Surface-Complexation Model

Hfo           
	 -1.295e-03  Surface charge, eq
	 -1.041e+00  sigma, C/m²
	 -2.071e-01  psi, V
	  8.062e+00  -F*psi/RT
	  3.172e+03  exp(-F*psi/RT)
	  6.000e+02  specific area, m²/g
	  1.200e+02  m² for   2.000e-01 g


Hfo_s         
	  1.000e-02  moles
	                                   Mole                     Log
	Species               Moles    Fraction    Molality    Molality

	Hfo_sOH           6.208e-03       0.621   6.209e-03      -2.207
	Hfo_sO-           2.429e-03       0.243   2.429e-03      -2.615
	Hfo_sOCu+         9.994e-04       0.100   9.995e-04      -3.000
	Hfo_sOH2+         3.635e-04       0.036   3.635e-04      -3.439

Hfo_w         
	  1.000e-03  moles
	                                   Mole                     Log
	Species               Moles    Fraction    Molality    Molality

	Hfo_wOH           6.894e-04       0.689   6.894e-04      -3.162
	Hfo_wO-           2.697e-04       0.270   2.697e-04      -3.569
	Hfo_wOH2+         4.037e-05       0.040   4.037e-05      -4.394
	Hfo_wOCu+         5.692e-07       0.001   5.692e-07      -6.245

-----------------------------Solution composition------------------------------

	Elements           Molality       Moles

	Cl                2.000e-03   2.000e-03
	Cu                1.568e-09   1.568e-09
	K                 1.000e-01   1.000e-01
	N                 8.493e-02   8.493e-02

----------------------------Description of solution----------------------------

                                       pH  =  12.024      Charge balance
                                       pe  =   6.334      Adjusted to redox equilibrium
      Specific Conductance (µS/cm,  25°C)  = 13795
                          Density (g/cm³)  =   1.00299
                               Volume (L)  =   1.00631
                        Activity of water  =   0.997
                 Ionic strength (mol/kgw)  =   9.936e-02
                       Mass of water (kg)  =   9.999e-01
                 Total alkalinity (eq/kg)  =   1.398e-02
                         Temperature (°C)  =  25.00
                  Electrical balance (eq)  =   1.295e-03
 Percent error, 100*(Cat-|An|)/(Cat+|An|)  =   0.65
                               Iterations  =  15
                                  Total H  = 1.110204e+02
                                  Total O  = 5.576537e+01

----------------------------Distribution of species----------------------------

                                               Log       Log       Log    mole V
   Species          Molality    Activity  Molality  Activity     Gamma   cm³/mol

   OH-             1.398e-02   1.065e-02    -1.854    -1.972    -0.118     -3.73
   H+              1.147e-12   9.467e-13   -11.941   -12.024    -0.083      0.00
   H2O             5.551e+01   9.966e-01     1.744    -0.001     0.000     18.07
Cl            2.000e-03
   Cl-             2.000e-03   1.534e-03    -2.699    -2.814    -0.115     18.34
   CuCl+           3.321e-22   2.556e-22   -21.479   -21.592    -0.114      0.95
   CuCl2-          1.455e-23   1.120e-23   -22.837   -22.951    -0.114     (0)  
   CuCl2           2.058e-25   2.106e-25   -24.686   -24.677     0.010     31.02
   CuCl3-2         7.225e-26   2.724e-26   -25.141   -25.565    -0.424     (0)  
   CuCl3-          1.490e-30   1.146e-30   -29.827   -29.941    -0.114     (0)  
   CuCl4-2         2.339e-35   8.816e-36   -34.631   -35.055    -0.424     (0)  
Cu(1)         3.482e-23
   Cu+             2.019e-23   1.505e-23   -22.695   -22.823    -0.128     (0)  
   CuCl2-          1.455e-23   1.120e-23   -22.837   -22.951    -0.114     (0)  
   CuCl3-2         7.225e-26   2.724e-26   -25.141   -25.565    -0.424     (0)  
Cu(2)         1.568e-09
   Cu(OH)2         1.401e-09   1.433e-09    -8.854    -8.844     0.010     (0)  
   Cu(OH)3-        1.163e-10   9.090e-11    -9.934   -10.041    -0.107     (0)  
   Cu(OH)4-2       5.117e-11   1.909e-11   -10.291   -10.719    -0.428     (0)  
   CuOH+           8.466e-16   6.516e-16   -15.072   -15.186    -0.114     (0)  
   Cu+2            1.543e-19   6.190e-20   -18.812   -19.208    -0.397    -25.95
   CuCl+           3.321e-22   2.556e-22   -21.479   -21.592    -0.114      0.95
   Cu2(OH)2+2      4.979e-25   1.858e-25   -24.303   -24.731    -0.428     (0)  
   CuCl2           2.058e-25   2.106e-25   -24.686   -24.677     0.010     31.02
   CuCl3-          1.490e-30   1.146e-30   -29.827   -29.941    -0.114     (0)  
   CuCl4-2         2.339e-35   8.816e-36   -34.631   -35.055    -0.424     (0)  
H(0)          2.661e-40
   H2              1.331e-40   1.361e-40   -39.876   -39.866     0.010     28.61
K             1.000e-01
   K+              1.000e-01   7.647e-02    -1.000    -1.116    -0.117      9.24
N(-3)         0.000e+00
   NH3             0.000e+00   0.000e+00   -50.265   -50.256     0.010     24.42
   NH4+            0.000e+00   0.000e+00   -52.907   -53.035    -0.128     18.17
N(0)          2.200e-03
   N2              1.100e-03   1.126e-03    -2.959    -2.949     0.010     29.29
N(3)          5.931e-10
   NO2-            5.931e-10   4.472e-10    -9.227    -9.350    -0.123     25.23
N(5)          8.273e-02
   NO3-            8.273e-02   6.237e-02    -1.082    -1.205    -0.123     29.77
O(0)          4.366e-13
   O2              2.183e-13   2.234e-13   -12.661   -12.651     0.010     30.40

------------------------------Saturation indices-------------------------------

  Phase               SI** log IAP   log K(298 K,   1 atm)

  H2(g)           -36.76    -39.87   -3.10  H2
  H2O(g)           -1.50     -0.00    1.50  H2O
  N2(g)             0.23     -2.95   -3.18  N2
  NH3(g)          -52.05    -50.26    1.80  NH3
  O2(g)            -9.76    -12.65   -2.89  O2
  Sylvite          -4.83     -3.93    0.90  KCl

**For a gas, SI = log10(fugacity). Fugacity = pressure * phi / 1 atm.
  For ideal gases, phi = 1.

Reaction step 4.

Using solution 0.	
Using surface 1.	
Using reaction 1.	

Reaction 1.	

	  8.000e-03 moles of the following reaction have been added:

	                 Relative
	Reactant            moles

	HNO3                 0.05000

	                 Relative
	Element             moles
	H                    0.05000
	N                    0.05000
	O                    0.15000

------------------------------Surface composition------------------------------

Diffuse Double Layer Surface-Complexation Model

Hfo           
	 -1.291e-03  Surface charge, eq
	 -1.038e+00  sigma, C/m²
	 -2.070e-01  psi, V
	  8.057e+00  -F*psi/RT
	  3.154e+03  exp(-F*psi/RT)
	  6.000e+02  specific area, m²/g
	  1.200e+02  m² for   2.000e-01 g


Hfo_s         
	  1.000e-02  moles
	                                   Mole                     Log
	Species               Moles    Fraction    Molality    Molality

	Hfo_sOH           6.210e-03       0.621   6.211e-03      -2.207
	Hfo_sO-           2.426e-03       0.243   2.426e-03      -2.615
	Hfo_sOCu+         9.994e-04       0.100   9.995e-04      -3.000
	Hfo_sOH2+         3.641e-04       0.036   3.642e-04      -3.439

Hfo_w         
	  1.000e-03  moles
	                                   Mole                     Log
	Species               Moles    Fraction    Molality    Molality

	Hfo_wOH           6.896e-04       0.690   6.896e-04      -3.161
	Hfo_wO-           2.694e-04       0.269   2.694e-04      -3.570
	Hfo_wOH2+         4.043e-05       0.040   4.044e-05      -4.393
	Hfo_wOCu+         5.692e-07       0.001   5.692e-07      -6.245

-----------------------------Solution composition------------------------------

	Elements           Molality       Moles

	Cl                2.000e-03   2.000e-03
	Cu                1.564e-09   1.564e-09
	K                 1.000e-01   1.000e-01
	N                 8.503e-02   8.503e-02

----------------------------Description of solution----------------------------

                                       pH  =  12.021      Charge balance
                                       pe  =   6.338      Adjusted to redox equilibrium
      Specific Conductance (µS/cm,  25°C)  = 13783
                          Density (g/cm³)  =   1.00299
                               Volume (L)  =   1.00632
                        Activity of water  =   0.997
                 Ionic strength (mol/kgw)  =   9.936e-02
                       Mass of water (kg)  =   9.999e-01
                 Total alkalinity (eq/kg)  =   1.388e-02
                         Temperature (°C)  =  25.00
                  Electrical balance (eq)  =   1.291e-03
 Percent error, 100*(Cat-|An|)/(Cat+|An|)  =   0.65
                               Iterations  =  15
                                  Total H  = 1.110205e+02
                                  Total O  = 5.576567e+01

----------------------------Distribution of species----------------------------

                                               Log       Log       Log    mole V
   Species          Molality    Activity  Molality  Activity     Gamma   cm³/mol

   OH-             1.388e-02   1.058e-02    -1.857    -1.975    -0.118     -3.73
   H+              1.155e-12   9.533e-13   -11.938   -12.021    -0.083      0.00
   H2O             5.551e+01   9.966e-01     1.744    -0.001     0.000     18.07
Cl            2.000e-03
   Cl-             2.000e-03   1.534e-03    -2.699    -2.814    -0.115     18.34
   CuCl+           3.362e-22   2.587e-22   -21.473   -21.587    -0.114      0.95
   CuCl2-          1.460e-23   1.124e-23   -22.836   -22.949    -0.114     (0)  
   CuCl2           2.084e-25   2.132e-25   -24.681   -24.671     0.010     31.02
   CuCl3-2         7.251e-26   2.733e-26   -25.140   -25.563    -0.424     (0)  
   CuCl3-          1.508e-30   1.160e-30   -29.822   -29.935    -0.114     (0)  
   CuCl4-2         2.367e-35   8.924e-36   -34.626   -35.049    -0.424     (0)  
Cu(1)         3.494e-23
   Cu+             2.026e-23   1.510e-23   -22.693   -22.821    -0.128     (0)  
   CuCl2-          1.460e-23   1.124e-23   -22.836   -22.949    -0.114     (0)  
   CuCl3-2         7.251e-26   2.733e-26   -25.140   -25.563    -0.424     (0)  
Cu(2)         1.564e-09
   Cu(OH)2         1.398e-09   1.431e-09    -8.854    -8.844     0.010     (0)  
   Cu(OH)3-        1.153e-10   9.012e-11    -9.938   -10.045    -0.107     (0)  
   Cu(OH)4-2       5.038e-11   1.880e-11   -10.298   -10.726    -0.428     (0)  
   CuOH+           8.510e-16   6.550e-16   -15.070   -15.184    -0.114     (0)  
   Cu+2            1.562e-19   6.266e-20   -18.806   -19.203    -0.397    -25.95
   CuCl+           3.362e-22   2.587e-22   -21.473   -21.587    -0.114      0.95
   Cu2(OH)2+2      5.031e-25   1.877e-25   -24.298   -24.726    -0.428     (0)  
   CuCl2           2.084e-25   2.132e-25   -24.681   -24.671     0.010     31.02
   CuCl3-          1.508e-30   1.160e-30   -29.822   -29.935    -0.114     (0)  
   CuCl4-2         2.367e-35   8.924e-36   -34.626   -35.049    -0.424     (0)  
H(0)          2.653e-40
   H2              1.326e-40   1.357e-40   -39.877   -39.867     0.010     28.61
K             1.000e-01
   K+              1.000e-01   7.647e-02    -1.000    -1.116    -0.117      9.24
N(-3)         0.000e+00
   NH3             0.000e+00   0.000e+00   -50.268   -50.258     0.010     24.42
   NH4+            0.000e+00   0.000e+00   -52.906   -53.034    -0.128     18.17
N(0)          2.200e-03
   N2              1.100e-03   1.126e-03    -2.959    -2.949     0.010     29.29
N(3)          5.919e-10
   NO2-            5.919e-10   4.463e-10    -9.228    -9.350    -0.123     25.23
N(5)          8.283e-02
   NO3-            8.283e-02   6.245e-02    -1.082    -1.204    -0.123     29.77
O(0)          4.395e-13
   O2              2.197e-13   2.248e-13   -12.658   -12.648     0.010     30.40

------------------------------Saturation indices-------------------------------

  Phase               SI** log IAP   log K(298 K,   1 atm)

  H2(g)           -36.77    -39.87   -3.10  H2
  H2O(g)           -1.50     -0.00    1.50  H2O
  N2(g)             0.23     -2.95   -3.18  N2
  NH3(g)          -52.05    -50.26    1.80  NH3
  O2(g)            -9.76    -12.65   -2.89  O2
  Sylvite          -4.83     -3.93    0.90  KCl

**For a gas, SI = log10(fugacity). Fugacity = pressure * phi / 1 atm.
  For ideal gases, phi = 1.

Reaction step 5.

Using solution 0.	
Using surface 1.	
Using reaction 1.	

Reaction 1.	

	  1.000e-02 moles of the following reaction have been added:

	                 Relative
	Reactant            moles

	HNO3                 0.05000

	                 Relative
	Element             moles
	H                    0.05000
	N                    0.05000
	O                    0.15000

------------------------------Surface composition------------------------------

Diffuse Double Layer Surface-Complexation Model

Hfo           
	 -1.287e-03  Surface charge, eq
	 -1.035e+00  sigma, C/m²
	 -2.068e-01  psi, V
	  8.051e+00  -F*psi/RT
	  3.137e+03  exp(-F*psi/RT)
	  6.000e+02  specific area, m²/g
	  1.200e+02  m² for   2.000e-01 g


Hfo_s         
	  1.000e-02  moles
	                                   Mole                     Log
	Species               Moles    Fraction    Molality    Molality

	Hfo_sOH           6.212e-03       0.621   6.212e-03      -2.207
	Hfo_sO-           2.424e-03       0.242   2.424e-03      -2.616
	Hfo_sOCu+         9.994e-04       0.100   9.995e-04      -3.000
	Hfo_sOH2+         3.648e-04       0.036   3.648e-04      -3.438

Hfo_w         
	  1.000e-03  moles
	                                   Mole                     Log
	Species               Moles    Fraction    Molality    Molality

	Hfo_wOH           6.898e-04       0.690   6.898e-04      -3.161
	Hfo_wO-           2.691e-04       0.269   2.691e-04      -3.570
	Hfo_wOH2+         4.050e-05       0.041   4.051e-05      -4.392
	Hfo_wOCu+         5.692e-07       0.001   5.692e-07      -6.245

-----------------------------Solution composition------------------------------

	Elements           Molality       Moles

	Cl                2.000e-03   2.000e-03
	Cu                1.560e-09   1.560e-09
	K                 1.000e-01   1.000e-01
	N                 8.513e-02   8.513e-02

----------------------------Description of solution----------------------------

                                       pH  =  12.018      Charge balance
                                       pe  =   6.342      Adjusted to redox equilibrium
      Specific Conductance (µS/cm,  25°C)  = 13772
                          Density (g/cm³)  =   1.00299
                               Volume (L)  =   1.00632
                        Activity of water  =   0.997
                 Ionic strength (mol/kgw)  =   9.936e-02
                       Mass of water (kg)  =   9.999e-01
                 Total alkalinity (eq/kg)  =   1.379e-02
                         Temperature (°C)  =  25.00
                  Electrical balance (eq)  =   1.287e-03
 Percent error, 100*(Cat-|An|)/(Cat+|An|)  =   0.65
                               Iterations  =  15
                                  Total H  = 1.110206e+02
                                  Total O  = 5.576597e+01

----------------------------Distribution of species----------------------------

                                               Log       Log       Log    mole V
   Species          Molality    Activity  Molality  Activity     Gamma   cm³/mol

   OH-             1.379e-02   1.051e-02    -1.860    -1.978    -0.118     -3.73
   H+              1.163e-12   9.600e-13   -11.935   -12.018    -0.083      0.00
   H2O             5.551e+01   9.966e-01     1.744    -0.001     0.000     18.07
Cl            2.000e-03
   Cl-             2.000e-03   1.534e-03    -2.699    -2.814    -0.115     18.34
   CuCl+           3.403e-22   2.619e-22   -21.468   -21.582    -0.114      0.95
   CuCl2-          1.466e-23   1.128e-23   -22.834   -22.948    -0.114     (0)  
   CuCl2           2.109e-25   2.158e-25   -24.676   -24.666     0.010     31.02
   CuCl3-2         7.277e-26   2.743e-26   -25.138   -25.562    -0.424     (0)  
   CuCl3-          1.526e-30   1.175e-30   -29.816   -29.930    -0.114     (0)  
   CuCl4-2         2.396e-35   9.033e-36   -34.620   -35.044    -0.424     (0)  
Cu(1)         3.507e-23
   Cu+             2.034e-23   1.516e-23   -22.692   -22.819    -0.128     (0)  
   CuCl2-          1.466e-23   1.128e-23   -22.834   -22.948    -0.114     (0)  
   CuCl3-2         7.277e-26   2.743e-26   -25.138   -25.562    -0.424     (0)  
Cu(2)         1.560e-09
   Cu(OH)2         1.396e-09   1.428e-09    -8.855    -8.845     0.010     (0)  
   Cu(OH)3-        1.143e-10   8.934e-11    -9.942   -10.049    -0.107     (0)  
   Cu(OH)4-2       4.959e-11   1.851e-11   -10.305   -10.733    -0.428     (0)  
   CuOH+           8.555e-16   6.585e-16   -15.068   -15.181    -0.114     (0)  
   Cu+2            1.581e-19   6.343e-20   -18.801   -19.198    -0.397    -25.95
   CuCl+           3.403e-22   2.619e-22   -21.468   -21.582    -0.114      0.95
   Cu2(OH)2+2      5.084e-25   1.897e-25   -24.294   -24.722    -0.428     (0)  
   CuCl2           2.109e-25   2.158e-25   -24.676   -24.666     0.010     31.02
   CuCl3-          1.526e-30   1.175e-30   -29.816   -29.930    -0.114     (0)  
   CuCl4-2         2.396e-35   9.033e-36   -34.620   -35.044    -0.424     (0)  
H(0)          2.644e-40
   H2              1.322e-40   1.353e-40   -39.879   -39.869     0.010     28.61
K             1.000e-01
   K+              1.000e-01   7.647e-02    -1.000    -1.116    -0.117      9.24
N(-3)         0.000e+00
   NH3             0.000e+00   0.000e+00   -50.270   -50.260     0.010     24.42
   NH4+            0.000e+00   0.000e+00   -52.906   -53.033    -0.128     18.17
N(0)          2.200e-03
   N2              1.100e-03   1.126e-03    -2.959    -2.949     0.010     29.29
N(3)          5.907e-10
   NO2-            5.907e-10   4.453e-10    -9.229    -9.351    -0.123     25.23
N(5)          8.293e-02
   NO3-            8.293e-02   6.252e-02    -1.081    -1.204    -0.123     29.77
O(0)          4.424e-13
   O2              2.212e-13   2.263e-13   -12.655   -12.645     0.010     30.40

------------------------------Saturation indices-------------------------------

  Phase               SI** log IAP   log K(298 K,   1 atm)

  H2(g)           -36.77    -39.87   -3.10  H2
  H2O(g)           -1.50     -0.00    1.50  H2O
  N2(g)             0.23     -2.95   -3.18  N2
  NH3(g)          -52.06    -50.26    1.80  NH3
  O2(g)            -9.75    -12.65   -2.89  O2
  Sylvite          -4.83     -3.93    0.90  KCl

**For a gas, SI = log10(fugacity). Fugacity = pressure * phi / 1 atm.
  For ideal gases, phi = 1.

Reaction step 6.

Using solution 0.	
Using surface 1.	
Using reaction 1.	

Reaction 1.	

	  1.200e-02 moles of the following reaction have been added:

	                 Relative
	Reactant            moles

	HNO3                 0.05000

	                 Relative
	Element             moles
	H                    0.05000
	N                    0.05000
	O                    0.15000

------------------------------Surface composition------------------------------

Diffuse Double Layer Surface-Complexation Model

Hfo           
	 -1.284e-03  Surface charge, eq
	 -1.032e+00  sigma, C/m²
	 -2.067e-01  psi, V
	  8.045e+00  -F*psi/RT
	  3.119e+03  exp(-F*psi/RT)
	  6.000e+02  specific area, m²/g
	  1.200e+02  m² for   2.000e-01 g


Hfo_s         
	  1.000e-02  moles
	                                   Mole                     Log
	Species               Moles    Fraction    Molality    Molality

	Hfo_sOH           6.214e-03       0.621   6.214e-03      -2.207
	Hfo_sO-           2.421e-03       0.242   2.421e-03      -2.616
	Hfo_sOCu+         9.994e-04       0.100   9.995e-04      -3.000
	Hfo_sOH2+         3.654e-04       0.037   3.654e-04      -3.437

Hfo_w         
	  1.000e-03  moles
	                                   Mole                     Log
	Species               Moles    Fraction    Molality    Molality

	Hfo_wOH           6.900e-04       0.690   6.901e-04      -3.161
	Hfo_wO-           2.688e-04       0.269   2.688e-04      -3.570
	Hfo_wOH2+         4.057e-05       0.041   4.058e-05      -4.392
	Hfo_wOCu+         5.692e-07       0.001   5.692e-07      -6.245

-----------------------------Solution composition------------------------------

	Elements           Molality       Moles

	Cl                2.000e-03   2.000e-03
	Cu                1.556e-09   1.556e-09
	K                 1.000e-01   1.000e-01
	N                 8.523e-02   8.523e-02

----------------------------Description of solution----------------------------

                                       pH  =  12.015      Charge balance
                                       pe  =   6.345      Adjusted to redox equilibrium
      Specific Conductance (µS/cm,  25°C)  = 13760
                          Density (g/cm³)  =   1.00300
                               Volume (L)  =   1.00633
                        Activity of water  =   0.997
                 Ionic strength (mol/kgw)  =   9.936e-02
                       Mass of water (kg)  =   1.000e+00
                 Total alkalinity (eq/kg)  =   1.369e-02
                         Temperature (°C)  =  25.00
                  Electrical balance (eq)  =   1.284e-03
 Percent error, 100*(Cat-|An|)/(Cat+|An|)  =   0.65
                               Iterations  =  15
                                  Total H  = 1.110207e+02
                                  Total O  = 5.576627e+01

----------------------------Distribution of species----------------------------

                                               Log       Log       Log    mole V
   Species          Molality    Activity  Molality  Activity     Gamma   cm³/mol

   OH-             1.369e-02   1.043e-02    -1.864    -1.982    -0.118     -3.73
   H+              1.171e-12   9.668e-13   -11.931   -12.015    -0.083      0.00
   H2O             5.551e+01   9.966e-01     1.744    -0.001     0.000     18.07
Cl            2.000e-03
   Cl-             2.000e-03   1.534e-03    -2.699    -2.814    -0.115     18.34
   CuCl+           3.445e-22   2.652e-22   -21.463   -21.576    -0.114      0.95
   CuCl2-          1.471e-23   1.132e-23   -22.832   -22.946    -0.114     (0)  
   CuCl2           2.135e-25   2.185e-25   -24.671   -24.661     0.010     31.02
   CuCl3-2         7.304e-26   2.753e-26   -25.136   -25.560    -0.424     (0)  
   CuCl3-          1.545e-30   1.189e-30   -29.811   -29.925    -0.114     (0)  
   CuCl4-2         2.426e-35   9.145e-36   -34.615   -35.039    -0.424     (0)  
Cu(1)         3.520e-23
   Cu+             2.041e-23   1.521e-23   -22.690   -22.818    -0.128     (0)  
   CuCl2-          1.471e-23   1.132e-23   -22.832   -22.946    -0.114     (0)  
   CuCl3-2         7.304e-26   2.753e-26   -25.136   -25.560    -0.424     (0)  
Cu(2)         1.556e-09
   Cu(OH)2         1.393e-09   1.426e-09    -8.856    -8.846     0.010     (0)  
   Cu(OH)3-        1.133e-10   8.856e-11    -9.946   -10.053    -0.107     (0)  
   Cu(OH)4-2       4.882e-11   1.822e-11   -10.311   -10.740    -0.428     (0)  
   CuOH+           8.600e-16   6.620e-16   -15.065   -15.179    -0.114     (0)  
   Cu+2            1.601e-19   6.421e-20   -18.796   -19.192    -0.397    -25.95
   CuCl+           3.445e-22   2.652e-22   -21.463   -21.576    -0.114      0.95
   Cu2(OH)2+2      5.139e-25   1.917e-25   -24.289   -24.717    -0.428     (0)  
   CuCl2           2.135e-25   2.185e-25   -24.671   -24.661     0.010     31.02
   CuCl3-          1.545e-30   1.189e-30   -29.811   -29.925    -0.114     (0)  
   CuCl4-2         2.426e-35   9.145e-36   -34.615   -35.039    -0.424     (0)  
H(0)          2.635e-40
   H2              1.318e-40   1.348e-40   -39.880   -39.870     0.010     28.61
K             1.000e-01
   K+              1.000e-01   7.647e-02    -1.000    -1.116    -0.117      9.24
N(-3)         0.000e+00
   NH3             0.000e+00   0.000e+00   -50.272   -50.262     0.010     24.42
   NH4+            0.000e+00   0.000e+00   -52.905   -53.032    -0.128     18.17
N(0)          2.200e-03
   N2              1.100e-03   1.126e-03    -2.959    -2.949     0.010     29.29
N(3)          5.895e-10
   NO2-            5.895e-10   4.444e-10    -9.230    -9.352    -0.123     25.23
N(5)          8.303e-02
   NO3-            8.303e-02   6.260e-02    -1.081    -1.203    -0.123     29.77
O(0)          4.453e-13
   O2              2.226e-13   2.278e-13   -12.652   -12.642     0.010     30.40

------------------------------Saturation indices-------------------------------

  Phase               SI** log IAP   log K(298 K,   1 atm)

  H2(g)           -36.77    -39.87   -3.10  H2
  H2O(g)           -1.50     -0.00    1.50  H2O
  N2(g)             0.23     -2.95   -3.18  N2
  NH3(g)          -52.06    -50.26    1.80  NH3
  O2(g)            -9.75    -12.64   -2.89  O2
  Sylvite          -4.83     -3.93    0.90  KCl

**For a gas, SI = log10(fugacity). Fugacity = pressure * phi / 1 atm.
  For ideal gases, phi = 1.

Reaction step 7.

Using solution 0.	
Using surface 1.	
Using reaction 1.	

Reaction 1.	

	  1.400e-02 moles of the following reaction have been added:

	                 Relative
	Reactant            moles

	HNO3                 0.05000

	                 Relative
	Element             moles
	H                    0.05000
	N                    0.05000
	O                    0.15000

------------------------------Surface composition------------------------------

Diffuse Double Layer Surface-Complexation Model

Hfo           
	 -1.280e-03  Surface charge, eq
	 -1.029e+00  sigma, C/m²
	 -2.065e-01  psi, V
	  8.040e+00  -F*psi/RT
	  3.102e+03  exp(-F*psi/RT)
	  6.000e+02  specific area, m²/g
	  1.200e+02  m² for   2.000e-01 g


Hfo_s         
	  1.000e-02  moles
	                                   Mole                     Log
	Species               Moles    Fraction    Molality    Molality

	Hfo_sOH           6.216e-03       0.622   6.216e-03      -2.206
	Hfo_sO-           2.418e-03       0.242   2.419e-03      -2.616
	Hfo_sOCu+         9.994e-04       0.100   9.995e-04      -3.000
	Hfo_sOH2+         3.660e-04       0.037   3.660e-04      -3.436

Hfo_w         
	  1.000e-03  moles
	                                   Mole                     Log
	Species               Moles    Fraction    Molality    Molality

	Hfo_wOH           6.902e-04       0.690   6.903e-04      -3.161
	Hfo_wO-           2.685e-04       0.269   2.686e-04      -3.571
	Hfo_wOH2+         4.064e-05       0.041   4.065e-05      -4.391
	Hfo_wOCu+         5.692e-07       0.001   5.692e-07      -6.245

-----------------------------Solution composition------------------------------

	Elements           Molality       Moles

	Cl                2.000e-03   2.000e-03
	Cu                1.551e-09   1.551e-09
	K                 1.000e-01   1.000e-01
	N                 8.533e-02   8.533e-02

----------------------------Description of solution----------------------------

                                       pH  =  12.012      Charge balance
                                       pe  =   6.349      Adjusted to redox equilibrium
      Specific Conductance (µS/cm,  25°C)  = 13748
                          Density (g/cm³)  =   1.00300
                               Volume (L)  =   1.00633
                        Activity of water  =   0.997
                 Ionic strength (mol/kgw)  =   9.936e-02
                       Mass of water (kg)  =   1.000e+00
                 Total alkalinity (eq/kg)  =   1.360e-02
                         Temperature (°C)  =  25.00
                  Electrical balance (eq)  =   1.280e-03
 Percent error, 100*(Cat-|An|)/(Cat+|An|)  =   0.64
                               Iterations  =  15
                                  Total H  = 1.110208e+02
                                  Total O  = 5.576657e+01

----------------------------Distribution of species----------------------------

                                               Log       Log       Log    mole V
   Species          Molality    Activity  Molality  Activity     Gamma   cm³/mol

   OH-             1.360e-02   1.036e-02    -1.867    -1.985    -0.118     -3.73
   H+              1.179e-12   9.736e-13   -11.928   -12.012    -0.083      0.00
   H2O             5.551e+01   9.966e-01     1.744    -0.001     0.000     18.07
Cl            2.000e-03
   Cl-             2.000e-03   1.534e-03    -2.699    -2.814    -0.115     18.34
   CuCl+           3.488e-22   2.685e-22   -21.457   -21.571    -0.114      0.95
   CuCl2-          1.477e-23   1.136e-23   -22.831   -22.944    -0.114     (0)  
   CuCl2           2.162e-25   2.212e-25   -24.665   -24.655     0.010     31.02
   CuCl3-2         7.331e-26   2.763e-26   -25.135   -25.559    -0.424     (0)  
   CuCl3-          1.564e-30   1.204e-30   -29.806   -29.919    -0.114     (0)  
   CuCl4-2         2.456e-35   9.259e-36   -34.610   -35.033    -0.424     (0)  
Cu(1)         3.533e-23
   Cu+             2.049e-23   1.527e-23   -22.689   -22.816    -0.128     (0)  
   CuCl2-          1.477e-23   1.136e-23   -22.831   -22.944    -0.114     (0)  
   CuCl3-2         7.331e-26   2.763e-26   -25.135   -25.559    -0.424     (0)  
Cu(2)         1.551e-09
   Cu(OH)2         1.391e-09   1.423e-09    -8.857    -8.847     0.010     (0)  
   Cu(OH)3-        1.123e-10   8.778e-11    -9.950   -10.057    -0.107     (0)  
   Cu(OH)4-2       4.805e-11   1.793e-11   -10.318   -10.746    -0.428     (0)  
   CuOH+           8.646e-16   6.655e-16   -15.063   -15.177    -0.114     (0)  
   Cu+2            1.621e-19   6.501e-20   -18.790   -19.187    -0.397    -25.95
   CuCl+           3.488e-22   2.685e-22   -21.457   -21.571    -0.114      0.95
   Cu2(OH)2+2      5.194e-25   1.938e-25   -24.285   -24.713    -0.428     (0)  
   CuCl2           2.162e-25   2.212e-25   -24.665   -24.655     0.010     31.02
   CuCl3-          1.564e-30   1.204e-30   -29.806   -29.919    -0.114     (0)  
   CuCl4-2         2.456e-35   9.259e-36   -34.610   -35.033    -0.424     (0)  
H(0)          2.627e-40
   H2              1.313e-40   1.344e-40   -39.882   -39.872     0.010     28.61
K             1.000e-01
   K+              1.000e-01   7.647e-02    -1.000    -1.116    -0.117      9.24
N(-3)         0.000e+00
   NH3             0.000e+00   0.000e+00   -50.274   -50.264     0.010     24.42
   NH4+            0.000e+00   0.000e+00   -52.904   -53.031    -0.128     18.17
N(0)          2.200e-03
   N2              1.100e-03   1.126e-03    -2.959    -2.949     0.010     29.29
N(3)          5.882e-10
   NO2-            5.882e-10   4.435e-10    -9.230    -9.353    -0.123     25.23
N(5)          8.313e-02
   NO3-            8.313e-02   6.267e-02    -1.080    -1.203    -0.123     29.77
O(0)          4.483e-13
   O2              2.241e-13   2.293e-13   -12.650   -12.640     0.010     30.40

------------------------------Saturation indices-------------------------------

  Phase               SI** log IAP   log K(298 K,   1 atm)

  H2(g)           -36.77    -39.87   -3.10  H2
  H2O(g)           -1.50     -0.00    1.50  H2O
  N2(g)             0.23     -2.95   -3.18  N2
  NH3(g)          -52.06    -50.26    1.80  NH3
  O2(g)            -9.75    -12.64   -2.89  O2
  Sylvite          -4.83     -3.93    0.90  KCl

**For a gas, SI = log10(fugacity). Fugacity = pressure * phi / 1 atm.
  For ideal gases, phi = 1.

Reaction step 8.

Using solution 0.	
Using surface 1.	
Using reaction 1.	

Reaction 1.	

	  1.600e-02 moles of the following reaction have been added:

	                 Relative
	Reactant            moles

	HNO3                 0.05000

	                 Relative
	Element             moles
	H                    0.05000
	N                    0.05000
	O                    0.15000

------------------------------Surface composition------------------------------

Diffuse Double Layer Surface-Complexation Model

Hfo           
	 -1.277e-03  Surface charge, eq
	 -1.027e+00  sigma, C/m²
	 -2.064e-01  psi, V
	  8.034e+00  -F*psi/RT
	  3.084e+03  exp(-F*psi/RT)
	  6.000e+02  specific area, m²/g
	  1.200e+02  m² for   2.000e-01 g


Hfo_s         
	  1.000e-02  moles
	                                   Mole                     Log
	Species               Moles    Fraction    Molality    Molality

	Hfo_sOH           6.218e-03       0.622   6.218e-03      -2.206
	Hfo_sO-           2.416e-03       0.242   2.416e-03      -2.617
	Hfo_sOCu+         9.994e-04       0.100   9.995e-04      -3.000
	Hfo_sOH2+         3.667e-04       0.037   3.667e-04      -3.436

Hfo_w         
	  1.000e-03  moles
	                                   Mole                     Log
	Species               Moles    Fraction    Molality    Molality

	Hfo_wOH           6.905e-04       0.690   6.905e-04      -3.161
	Hfo_wO-           2.682e-04       0.268   2.683e-04      -3.571
	Hfo_wOH2+         4.071e-05       0.041   4.072e-05      -4.390
	Hfo_wOCu+         5.692e-07       0.001   5.692e-07      -6.245

-----------------------------Solution composition------------------------------

	Elements           Molality       Moles

	Cl                2.000e-03   2.000e-03
	Cu                1.547e-09   1.547e-09
	K                 1.000e-01   1.000e-01
	N                 8.543e-02   8.543e-02

----------------------------Description of solution----------------------------

                                       pH  =  12.009      Charge balance
                                       pe  =   6.353      Adjusted to redox equilibrium
      Specific Conductance (µS/cm,  25°C)  = 13736
                          Density (g/cm³)  =   1.00300
                               Volume (L)  =   1.00634
                        Activity of water  =   0.997
                 Ionic strength (mol/kgw)  =   9.937e-02
                       Mass of water (kg)  =   1.000e+00
                 Total alkalinity (eq/kg)  =   1.350e-02
                         Temperature (°C)  =  25.00
                  Electrical balance (eq)  =   1.277e-03
 Percent error, 100*(Cat-|An|)/(Cat+|An|)  =   0.64
                               Iterations  =  15
                                  Total H  = 1.110209e+02
                                  Total O  = 5.576687e+01

----------------------------Distribution of species----------------------------

                                               Log       Log       Log    mole V
   Species          Molality    Activity  Molality  Activity     Gamma   cm³/mol

   OH-             1.350e-02   1.029e-02    -1.870    -1.988    -0.118     -3.73
   H+              1.188e-12   9.806e-13   -11.925   -12.009    -0.083      0.00
   H2O             5.551e+01   9.966e-01     1.744    -0.001     0.000     18.07
Cl            2.000e-03
   Cl-             2.000e-03   1.534e-03    -2.699    -2.814    -0.115     18.34
   CuCl+           3.532e-22   2.718e-22   -21.452   -21.566    -0.114      0.95
   CuCl2-          1.482e-23   1.141e-23   -22.829   -22.943    -0.114     (0)  
   CuCl2           2.189e-25   2.240e-25   -24.660   -24.650     0.010     31.02
   CuCl3-2         7.358e-26   2.774e-26   -25.133   -25.557    -0.424     (0)  
   CuCl3-          1.584e-30   1.219e-30   -29.800   -29.914    -0.114     (0)  
   CuCl4-2         2.487e-35   9.375e-36   -34.604   -35.028    -0.424     (0)  
Cu(1)         3.546e-23
   Cu+             2.056e-23   1.532e-23   -22.687   -22.815    -0.128     (0)  
   CuCl2-          1.482e-23   1.141e-23   -22.829   -22.943    -0.114     (0)  
   CuCl3-2         7.358e-26   2.774e-26   -25.133   -25.557    -0.424     (0)  
Cu(2)         1.547e-09
   Cu(OH)2         1.389e-09   1.421e-09    -8.857    -8.847     0.010     (0)  
   Cu(OH)3-        1.113e-10   8.701e-11    -9.953   -10.060    -0.107     (0)  
   Cu(OH)4-2       4.729e-11   1.764e-11   -10.325   -10.753    -0.428     (0)  
   CuOH+           8.693e-16   6.691e-16   -15.061   -15.175    -0.114     (0)  
   Cu+2            1.641e-19   6.583e-20   -18.785   -19.182    -0.397    -25.95
   CuCl+           3.532e-22   2.718e-22   -21.452   -21.566    -0.114      0.95
   Cu2(OH)2+2      5.250e-25   1.959e-25   -24.280   -24.708    -0.428     (0)  
   CuCl2           2.189e-25   2.240e-25   -24.660   -24.650     0.010     31.02
   CuCl3-          1.584e-30   1.219e-30   -29.800   -29.914    -0.114     (0)  
   CuCl4-2         2.487e-35   9.375e-36   -34.604   -35.028    -0.424     (0)  
H(0)          2.618e-40
   H2              1.309e-40   1.339e-40   -39.883   -39.873     0.010     28.61
K             1.000e-01
   K+              1.000e-01   7.647e-02    -1.000    -1.116    -0.117      9.24
N(-3)         0.000e+00
   NH3             0.000e+00   0.000e+00   -50.276   -50.266     0.010     24.42
   NH4+            0.000e+00   0.000e+00   -52.903   -53.031    -0.128     18.17
N(0)          2.200e-03
   N2              1.100e-03   1.126e-03    -2.959    -2.949     0.010     29.29
N(3)          5.870e-10
   NO2-            5.870e-10   4.425e-10    -9.231    -9.354    -0.123     25.23
N(5)          8.323e-02
   NO3-            8.323e-02   6.275e-02    -1.080    -1.202    -0.123     29.77
O(0)          4.512e-13
   O2              2.256e-13   2.308e-13   -12.647   -12.637     0.010     30.40

------------------------------Saturation indices-------------------------------

  Phase               SI** log IAP   log K(298 K,   1 atm)

  H2(g)           -36.77    -39.87   -3.10  H2
  H2O(g)           -1.50     -0.00    1.50  H2O
  N2(g)             0.23     -2.95   -3.18  N2
  NH3(g)          -52.06    -50.27    1.80  NH3
  O2(g)            -9.74    -12.64   -2.89  O2
  Sylvite          -4.83     -3.93    0.90  KCl

**For a gas, SI = log10(fugacity). Fugacity = pressure * phi / 1 atm.
  For ideal gases, phi = 1.

Reaction step 9.

Using solution 0.	
Using surface 1.	
Using reaction 1.	

Reaction 1.	

	  1.800e-02 moles of the following reaction have been added:

	                 Relative
	Reactant            moles

	HNO3                 0.05000

	                 Relative
	Element             moles
	H                    0.05000
	N                    0.05000
	O                    0.15000

------------------------------Surface composition------------------------------

Diffuse Double Layer Surface-Complexation Model

Hfo           
	 -1.273e-03  Surface charge, eq
	 -1.024e+00  sigma, C/m²
	 -2.063e-01  psi, V
	  8.028e+00  -F*psi/RT
	  3.066e+03  exp(-F*psi/RT)
	  6.000e+02  specific area, m²/g
	  1.200e+02  m² for   2.000e-01 g


Hfo_s         
	  1.000e-02  moles
	                                   Mole                     Log
	Species               Moles    Fraction    Molality    Molality

	Hfo_sOH           6.220e-03       0.622   6.220e-03      -2.206
	Hfo_sO-           2.413e-03       0.241   2.413e-03      -2.617
	Hfo_sOCu+         9.994e-04       0.100   9.995e-04      -3.000
	Hfo_sOH2+         3.673e-04       0.037   3.673e-04      -3.435

Hfo_w         
	  1.000e-03  moles
	                                   Mole                     Log
	Species               Moles    Fraction    Molality    Molality

	Hfo_wOH           6.907e-04       0.691   6.907e-04      -3.161
	Hfo_wO-           2.680e-04       0.268   2.680e-04      -3.572
	Hfo_wOH2+         4.079e-05       0.041   4.079e-05      -4.389
	Hfo_wOCu+         5.692e-07       0.001   5.692e-07      -6.245

-----------------------------Solution composition------------------------------

	Elements           Molality       Moles

	Cl                2.000e-03   2.000e-03
	Cu                1.543e-09   1.543e-09
	K                 1.000e-01   1.000e-01
	N                 8.553e-02   8.553e-02

----------------------------Description of solution----------------------------

                                       pH  =  12.005      Charge balance
                                       pe  =   6.357      Adjusted to redox equilibrium
      Specific Conductance (µS/cm,  25°C)  = 13724
                          Density (g/cm³)  =   1.00300
                               Volume (L)  =   1.00634
                        Activity of water  =   0.997
                 Ionic strength (mol/kgw)  =   9.937e-02
                       Mass of water (kg)  =   1.000e+00
                 Total alkalinity (eq/kg)  =   1.340e-02
                         Temperature (°C)  =  25.00
                  Electrical balance (eq)  =   1.273e-03
 Percent error, 100*(Cat-|An|)/(Cat+|An|)  =   0.64
                               Iterations  =  15
                                  Total H  = 1.110210e+02
                                  Total O  = 5.576717e+01

----------------------------Distribution of species----------------------------

                                               Log       Log       Log    mole V
   Species          Molality    Activity  Molality  Activity     Gamma   cm³/mol

   OH-             1.340e-02   1.021e-02    -1.873    -1.991    -0.118     -3.73
   H+              1.196e-12   9.876e-13   -11.922   -12.005    -0.083      0.00
   H2O             5.551e+01   9.966e-01     1.744    -0.001     0.000     18.07
Cl            2.000e-03
   Cl-             2.000e-03   1.534e-03    -2.699    -2.814    -0.115     18.34
   CuCl+           3.577e-22   2.753e-22   -21.447   -21.560    -0.114      0.95
   CuCl2-          1.488e-23   1.145e-23   -22.828   -22.941    -0.114     (0)  
   CuCl2           2.217e-25   2.268e-25   -24.654   -24.644     0.010     31.02
   CuCl3-2         7.386e-26   2.784e-26   -25.132   -25.555    -0.424     (0)  
   CuCl3-          1.604e-30   1.235e-30   -29.795   -29.908    -0.114     (0)  
   CuCl4-2         2.519e-35   9.494e-36   -34.599   -35.023    -0.424     (0)  
Cu(1)         3.559e-23
   Cu+             2.064e-23   1.538e-23   -22.685   -22.813    -0.128     (0)  
   CuCl2-          1.488e-23   1.145e-23   -22.828   -22.941    -0.114     (0)  
   CuCl3-2         7.386e-26   2.784e-26   -25.132   -25.555    -0.424     (0)  
Cu(2)         1.543e-09
   Cu(OH)2         1.386e-09   1.418e-09    -8.858    -8.848     0.010     (0)  
   Cu(OH)3-        1.103e-10   8.624e-11    -9.957   -10.064    -0.107     (0)  
   Cu(OH)4-2       4.654e-11   1.736e-11   -10.332   -10.760    -0.428     (0)  
   CuOH+           8.740e-16   6.727e-16   -15.058   -15.172    -0.114     (0)  
   Cu+2            1.662e-19   6.667e-20   -18.779   -19.176    -0.397    -25.95
   CuCl+           3.577e-22   2.753e-22   -21.447   -21.560    -0.114      0.95
   Cu2(OH)2+2      5.307e-25   1.980e-25   -24.275   -24.703    -0.428     (0)  
   CuCl2           2.217e-25   2.268e-25   -24.654   -24.644     0.010     31.02
   CuCl3-          1.604e-30   1.235e-30   -29.795   -29.908    -0.114     (0)  
   CuCl4-2         2.519e-35   9.494e-36   -34.599   -35.023    -0.424     (0)  
H(0)          2.609e-40
   H2              1.305e-40   1.335e-40   -39.885   -39.875     0.010     28.61
K             1.000e-01
   K+              1.000e-01   7.647e-02    -1.000    -1.116    -0.117      9.24
N(-3)         0.000e+00
   NH3             0.000e+00   0.000e+00   -50.278   -50.268     0.010     24.42
   NH4+            0.000e+00   0.000e+00   -52.902   -53.030    -0.128     18.17
N(0)          2.200e-03
   N2              1.100e-03   1.126e-03    -2.959    -2.949     0.010     29.29
N(3)          5.857e-10
   NO2-            5.857e-10   4.416e-10    -9.232    -9.355    -0.123     25.23
N(5)          8.333e-02
   NO3-            8.333e-02   6.282e-02    -1.079    -1.202    -0.123     29.77
O(0)          4.543e-13
   O2              2.271e-13   2.324e-13   -12.644   -12.634     0.010     30.40

------------------------------Saturation indices-------------------------------

  Phase               SI** log IAP   log K(298 K,   1 atm)

  H2(g)           -36.77    -39.87   -3.10  H2
  H2O(g)           -1.50     -0.00    1.50  H2O
  N2(g)             0.23     -2.95   -3.18  N2
  NH3(g)          -52.06    -50.27    1.80  NH3
  O2(g)            -9.74    -12.63   -2.89  O2
  Sylvite          -4.83     -3.93    0.90  KCl

**For a gas, SI = log10(fugacity). Fugacity = pressure * phi / 1 atm.
  For ideal gases, phi = 1.

Reaction step 10.

Using solution 0.	
Using surface 1.	
Using reaction 1.	

Reaction 1.	

	  2.000e-02 moles of the following reaction have been added:

	                 Relative
	Reactant            moles

	HNO3                 0.05000

	                 Relative
	Element             moles
	H                    0.05000
	N                    0.05000
	O                    0.15000

------------------------------Surface composition------------------------------

Diffuse Double Layer Surface-Complexation Model

Hfo           
	 -1.269e-03  Surface charge, eq
	 -1.021e+00  sigma, C/m²
	 -2.061e-01  psi, V
	  8.022e+00  -F*psi/RT
	  3.049e+03  exp(-F*psi/RT)
	  6.000e+02  specific area, m²/g
	  1.200e+02  m² for   2.000e-01 g


Hfo_s         
	  1.000e-02  moles
	                                   Mole                     Log
	Species               Moles    Fraction    Molality    Molality

	Hfo_sOH           6.222e-03       0.622   6.222e-03      -2.206
	Hfo_sO-           2.410e-03       0.241   2.411e-03      -2.618
	Hfo_sOCu+         9.994e-04       0.100   9.995e-04      -3.000
	Hfo_sOH2+         3.679e-04       0.037   3.680e-04      -3.434

Hfo_w         
	  1.000e-03  moles
	                                   Mole                     Log
	Species               Moles    Fraction    Molality    Molality

	Hfo_wOH           6.909e-04       0.691   6.909e-04      -3.161
	Hfo_wO-           2.677e-04       0.268   2.677e-04      -3.572
	Hfo_wOH2+         4.086e-05       0.041   4.086e-05      -4.389
	Hfo_wOCu+         5.692e-07       0.001   5.692e-07      -6.245

-----------------------------Solution composition------------------------------

	Elements           Molality       Moles

	Cl                2.000e-03   2.000e-03
	Cu                1.539e-09   1.539e-09
	K                 1.000e-01   1.000e-01
	N                 8.563e-02   8.563e-02

----------------------------Description of solution----------------------------

                                       pH  =  12.002      Charge balance
                                       pe  =   6.361      Adjusted to redox equilibrium
      Specific Conductance (µS/cm,  25°C)  = 13712
                          Density (g/cm³)  =   1.00300
                               Volume (L)  =   1.00635
                        Activity of water  =   0.997
                 Ionic strength (mol/kgw)  =   9.937e-02
                       Mass of water (kg)  =   1.000e+00
                 Total alkalinity (eq/kg)  =   1.331e-02
                         Temperature (°C)  =  25.00
                  Electrical balance (eq)  =   1.269e-03
 Percent error, 100*(Cat-|An|)/(Cat+|An|)  =   0.64
                               Iterations  =  15
                                  Total H  = 1.110211e+02
                                  Total O  = 5.576747e+01

----------------------------Distribution of species----------------------------

                                               Log       Log       Log    mole V
   Species          Molality    Activity  Molality  Activity     Gamma   cm³/mol

   OH-             1.331e-02   1.014e-02    -1.876    -1.994    -0.118     -3.73
   H+              1.205e-12   9.948e-13   -11.919   -12.002    -0.083      0.00
   H2O             5.551e+01   9.966e-01     1.744    -0.001     0.000     18.07
Cl            2.000e-03
   Cl-             2.000e-03   1.534e-03    -2.699    -2.814    -0.115     18.34
   CuCl+           3.622e-22   2.788e-22   -21.441   -21.555    -0.114      0.95
   CuCl2-          1.493e-23   1.149e-23   -22.826   -22.940    -0.114     (0)  
   CuCl2           2.245e-25   2.297e-25   -24.649   -24.639     0.010     31.02
   CuCl3-2         7.414e-26   2.795e-26   -25.130   -25.554    -0.424     (0)  
   CuCl3-          1.625e-30   1.250e-30   -29.789   -29.903    -0.114     (0)  
   CuCl4-2         2.551e-35   9.615e-36   -34.593   -35.017    -0.424     (0)  
Cu(1)         3.573e-23
   Cu+             2.072e-23   1.544e-23   -22.684   -22.811    -0.128     (0)  
   CuCl2-          1.493e-23   1.149e-23   -22.826   -22.940    -0.114     (0)  
   CuCl3-2         7.414e-26   2.795e-26   -25.130   -25.554    -0.424     (0)  
Cu(2)         1.539e-09
   Cu(OH)2         1.384e-09   1.416e-09    -8.859    -8.849     0.010     (0)  
   Cu(OH)3-        1.094e-10   8.547e-11    -9.961   -10.068    -0.107     (0)  
   Cu(OH)4-2       4.579e-11   1.708e-11   -10.339   -10.767    -0.428     (0)  
   CuOH+           8.788e-16   6.764e-16   -15.056   -15.170    -0.114     (0)  
   Cu+2            1.683e-19   6.752e-20   -18.774   -19.171    -0.397    -25.95
   CuCl+           3.622e-22   2.788e-22   -21.441   -21.555    -0.114      0.95
   Cu2(OH)2+2      5.366e-25   2.002e-25   -24.270   -24.699    -0.428     (0)  
   CuCl2           2.245e-25   2.297e-25   -24.649   -24.639     0.010     31.02
   CuCl3-          1.625e-30   1.250e-30   -29.789   -29.903    -0.114     (0)  
   CuCl4-2         2.551e-35   9.615e-36   -34.593   -35.017    -0.424     (0)  
H(0)          2.600e-40
   H2              1.300e-40   1.330e-40   -39.886   -39.876     0.010     28.61
K             1.000e-01
   K+              1.000e-01   7.647e-02    -1.000    -1.116    -0.117      9.24
N(-3)         0.000e+00
   NH3             0.000e+00   0.000e+00   -50.281   -50.271     0.010     24.42
   NH4+            0.000e+00   0.000e+00   -52.901   -53.029    -0.128     18.17
N(0)          2.200e-03
   N2              1.100e-03   1.126e-03    -2.959    -2.949     0.010     29.29
N(3)          5.844e-10
   NO2-            5.844e-10   4.406e-10    -9.233    -9.356    -0.123     25.23
N(5)          8.343e-02
   NO3-            8.343e-02   6.290e-02    -1.079    -1.201    -0.123     29.77
O(0)          4.573e-13
   O2              2.287e-13   2.340e-13   -12.641   -12.631     0.010     30.40

------------------------------Saturation indices-------------------------------

  Phase               SI** log IAP   log K(298 K,   1 atm)

  H2(g)           -36.77    -39.88   -3.10  H2
  H2O(g)           -1.50     -0.00    1.50  H2O
  N2(g)             0.23     -2.95   -3.18  N2
  NH3(g)          -52.07    -50.27    1.80  NH3
  O2(g)            -9.74    -12.63   -2.89  O2
  Sylvite          -4.83     -3.93    0.90  KCl

**For a gas, SI = log10(fugacity). Fugacity = pressure * phi / 1 atm.
  For ideal gases, phi = 1.

Reaction step 11.

Using solution 0.	
Using surface 1.	
Using reaction 1.	

Reaction 1.	

	  2.200e-02 moles of the following reaction have been added:

	                 Relative
	Reactant            moles

	HNO3                 0.05000

	                 Relative
	Element             moles
	H                    0.05000
	N                    0.05000
	O                    0.15000

------------------------------Surface composition------------------------------

Diffuse Double Layer Surface-Complexation Model

Hfo           
	 -1.266e-03  Surface charge, eq
	 -1.018e+00  sigma, C/m²
	 -2.060e-01  psi, V
	  8.017e+00  -F*psi/RT
	  3.031e+03  exp(-F*psi/RT)
	  6.000e+02  specific area, m²/g
	  1.200e+02  m² for   2.000e-01 g


Hfo_s         
	  1.000e-02  moles
	                                   Mole                     Log
	Species               Moles    Fraction    Molality    Molality

	Hfo_sOH           6.224e-03       0.622   6.224e-03      -2.206
	Hfo_sO-           2.408e-03       0.241   2.408e-03      -2.618
	Hfo_sOCu+         9.994e-04       0.100   9.995e-04      -3.000
	Hfo_sOH2+         3.686e-04       0.037   3.686e-04      -3.433

Hfo_w         
	  1.000e-03  moles
	                                   Mole                     Log
	Species               Moles    Fraction    Molality    Molality

	Hfo_wOH           6.911e-04       0.691   6.912e-04      -3.160
	Hfo_wO-           2.674e-04       0.267   2.674e-04      -3.573
	Hfo_wOH2+         4.093e-05       0.041   4.093e-05      -4.388
	Hfo_wOCu+         5.692e-07       0.001   5.692e-07      -6.245

-----------------------------Solution composition------------------------------

	Elements           Molality       Moles

	Cl                2.000e-03   2.000e-03
	Cu                1.535e-09   1.535e-09
	K                 1.000e-01   1.000e-01
	N                 8.573e-02   8.573e-02

----------------------------Description of solution----------------------------

                                       pH  =  11.999      Charge balance
                                       pe  =   6.365      Adjusted to redox equilibrium
      Specific Conductance (µS/cm,  25°C)  = 13700
                          Density (g/cm³)  =   1.00300
                               Volume (L)  =   1.00636
                        Activity of water  =   0.997
                 Ionic strength (mol/kgw)  =   9.937e-02
                       Mass of water (kg)  =   1.000e+00
                 Total alkalinity (eq/kg)  =   1.321e-02
                         Temperature (°C)  =  25.00
                  Electrical balance (eq)  =   1.266e-03
 Percent error, 100*(Cat-|An|)/(Cat+|An|)  =   0.64
                               Iterations  =  15
                                  Total H  = 1.110212e+02
                                  Total O  = 5.576777e+01

----------------------------Distribution of species----------------------------

                                               Log       Log       Log    mole V
   Species          Molality    Activity  Molality  Activity     Gamma   cm³/mol

   OH-             1.321e-02   1.007e-02    -1.879    -1.997    -0.118     -3.73
   H+              1.214e-12   1.002e-12   -11.916   -11.999    -0.083      0.00
   H2O             5.551e+01   9.966e-01     1.744    -0.001     0.000     18.07
Cl            2.000e-03
   Cl-             2.000e-03   1.534e-03    -2.699    -2.814    -0.115     18.34
   CuCl+           3.669e-22   2.824e-22   -21.435   -21.549    -0.114      0.95
   CuCl2-          1.499e-23   1.154e-23   -22.824   -22.938    -0.114     (0)  
   CuCl2           2.274e-25   2.327e-25   -24.643   -24.633     0.010     31.02
   CuCl3-2         7.442e-26   2.805e-26   -25.128   -25.552    -0.424     (0)  
   CuCl3-          1.646e-30   1.267e-30   -29.784   -29.897    -0.114     (0)  
   CuCl4-2         2.584e-35   9.739e-36   -34.588   -35.012    -0.424     (0)  
Cu(1)         3.586e-23
   Cu+             2.080e-23   1.550e-23   -22.682   -22.810    -0.128     (0)  
   CuCl2-          1.499e-23   1.154e-23   -22.824   -22.938    -0.114     (0)  
   CuCl3-2         7.442e-26   2.805e-26   -25.128   -25.552    -0.424     (0)  
Cu(2)         1.535e-09
   Cu(OH)2         1.381e-09   1.413e-09    -8.860    -8.850     0.010     (0)  
   Cu(OH)3-        1.084e-10   8.470e-11    -9.965   -10.072    -0.107     (0)  
   Cu(OH)4-2       4.505e-11   1.681e-11   -10.346   -10.774    -0.428     (0)  
   CuOH+           8.837e-16   6.801e-16   -15.054   -15.167    -0.114     (0)  
   Cu+2            1.705e-19   6.839e-20   -18.768   -19.165    -0.397    -25.95
   CuCl+           3.669e-22   2.824e-22   -21.435   -21.549    -0.114      0.95
   Cu2(OH)2+2      5.425e-25   2.024e-25   -24.266   -24.694    -0.428     (0)  
   CuCl2           2.274e-25   2.327e-25   -24.643   -24.633     0.010     31.02
   CuCl3-          1.646e-30   1.267e-30   -29.784   -29.897    -0.114     (0)  
   CuCl4-2         2.584e-35   9.739e-36   -34.588   -35.012    -0.424     (0)  
H(0)          2.592e-40
   H2              1.296e-40   1.326e-40   -39.887   -39.878     0.010     28.61
K             1.000e-01
   K+              1.000e-01   7.647e-02    -1.000    -1.116    -0.117      9.24
N(-3)         0.000e+00
   NH3             0.000e+00   0.000e+00   -50.283   -50.273     0.010     24.42
   NH4+            0.000e+00   0.000e+00   -52.900   -53.028    -0.128     18.17
N(0)          2.200e-03
   N2              1.100e-03   1.126e-03    -2.959    -2.949     0.010     29.29
N(3)          5.832e-10
   NO2-            5.832e-10   4.397e-10    -9.234    -9.357    -0.123     25.23
N(5)          8.353e-02
   NO3-            8.353e-02   6.297e-02    -1.078    -1.201    -0.123     29.77
O(0)          4.604e-13
   O2              2.302e-13   2.356e-13   -12.638   -12.628     0.010     30.40

------------------------------Saturation indices-------------------------------

  Phase               SI** log IAP   log K(298 K,   1 atm)

  H2(g)           -36.78    -39.88   -3.10  H2
  H2O(g)           -1.50     -0.00    1.50  H2O
  N2(g)             0.23     -2.95   -3.18  N2
  NH3(g)          -52.07    -50.27    1.80  NH3
  O2(g)            -9.74    -12.63   -2.89  O2
  Sylvite          -4.83     -3.93    0.90  KCl

**For a gas, SI = log10(fugacity). Fugacity = pressure * phi / 1 atm.
  For ideal gases, phi = 1.

Reaction step 12.

Using solution 0.	
Using surface 1.	
Using reaction 1.	

Reaction 1.	

	  2.400e-02 moles of the following reaction have been added:

	                 Relative
	Reactant            moles

	HNO3                 0.05000

	                 Relative
	Element             moles
	H                    0.05000
	N                    0.05000
	O                    0.15000

------------------------------Surface composition------------------------------

Diffuse Double Layer Surface-Complexation Model

Hfo           
	 -1.262e-03  Surface charge, eq
	 -1.015e+00  sigma, C/m²
	 -2.058e-01  psi, V
	  8.011e+00  -F*psi/RT
	  3.013e+03  exp(-F*psi/RT)
	  6.000e+02  specific area, m²/g
	  1.200e+02  m² for   2.000e-01 g


Hfo_s         
	  1.000e-02  moles
	                                   Mole                     Log
	Species               Moles    Fraction    Molality    Molality

	Hfo_sOH           6.226e-03       0.623   6.226e-03      -2.206
	Hfo_sO-           2.405e-03       0.241   2.405e-03      -2.619
	Hfo_sOCu+         9.994e-04       0.100   9.995e-04      -3.000
	Hfo_sOH2+         3.692e-04       0.037   3.693e-04      -3.433

Hfo_w         
	  1.000e-03  moles
	                                   Mole                     Log
	Species               Moles    Fraction    Molality    Molality

	Hfo_wOH           6.914e-04       0.691   6.914e-04      -3.160
	Hfo_wO-           2.671e-04       0.267   2.671e-04      -3.573
	Hfo_wOH2+         4.100e-05       0.041   4.100e-05      -4.387
	Hfo_wOCu+         5.692e-07       0.001   5.692e-07      -6.245

-----------------------------Solution composition------------------------------

	Elements           Molality       Moles

	Cl                2.000e-03   2.000e-03
	Cu                1.531e-09   1.531e-09
	K                 1.000e-01   1.000e-01
	N                 8.583e-02   8.583e-02

----------------------------Description of solution----------------------------

                                       pH  =  11.996      Charge balance
                                       pe  =   6.369      Adjusted to redox equilibrium
      Specific Conductance (µS/cm,  25°C)  = 13689
                          Density (g/cm³)  =   1.00300
                               Volume (L)  =   1.00636
                        Activity of water  =   0.997
                 Ionic strength (mol/kgw)  =   9.937e-02
                       Mass of water (kg)  =   1.000e+00
                 Total alkalinity (eq/kg)  =   1.311e-02
                         Temperature (°C)  =  25.00
                  Electrical balance (eq)  =   1.262e-03
 Percent error, 100*(Cat-|An|)/(Cat+|An|)  =   0.63
                               Iterations  =  15
                                  Total H  = 1.110213e+02
                                  Total O  = 5.576807e+01

----------------------------Distribution of species----------------------------

                                               Log       Log       Log    mole V
   Species          Molality    Activity  Molality  Activity     Gamma   cm³/mol

   OH-             1.311e-02   9.993e-03    -1.882    -2.000    -0.118     -3.73
   H+              1.223e-12   1.009e-12   -11.913   -11.996    -0.083      0.00
   H2O             5.551e+01   9.966e-01     1.744    -0.001     0.000     18.07
Cl            2.000e-03
   Cl-             2.000e-03   1.534e-03    -2.699    -2.814    -0.115     18.34
   CuCl+           3.716e-22   2.860e-22   -21.430   -21.544    -0.114      0.95
   CuCl2-          1.505e-23   1.158e-23   -22.823   -22.936    -0.114     (0)  
   CuCl2           2.303e-25   2.357e-25   -24.638   -24.628     0.010     31.02
   CuCl3-2         7.471e-26   2.816e-26   -25.127   -25.550    -0.424     (0)  
   CuCl3-          1.667e-30   1.283e-30   -29.778   -29.892    -0.114     (0)  
   CuCl4-2         2.617e-35   9.865e-36   -34.582   -35.006    -0.424     (0)  
Cu(1)         3.600e-23
   Cu+             2.088e-23   1.556e-23   -22.680   -22.808    -0.128     (0)  
   CuCl2-          1.505e-23   1.158e-23   -22.823   -22.936    -0.114     (0)  
   CuCl3-2         7.471e-26   2.816e-26   -25.127   -25.550    -0.424     (0)  
[...]
O(0)          1.070e-04
   O2              5.349e-05   5.513e-05    -4.272    -4.259     0.013     30.40

------------------------------Saturation indices-------------------------------

  Phase               SI** log IAP   log K(298 K,   1 atm)

  H2(g)           -40.96    -44.06   -3.10  H2
  H2O(g)           -1.50     -0.00    1.50  H2O
  N2(g)             0.24     -2.94   -3.18  N2
  NH3(g)          -58.34    -56.54    1.80  NH3
  O2(g)            -1.37     -4.26   -2.89  O2
  Sylvite          -4.85     -3.95    0.90  KCl

**For a gas, SI = log10(fugacity). Fugacity = pressure * phi / 1 atm.
  For ideal gases, phi = 1.

Reaction step 498.

Using solution 0.	
Using surface 1.	
Using reaction 1.	

Reaction 1.	

	  9.960e-01 moles of the following reaction have been added:

	                 Relative
	Reactant            moles

	HNO3                 0.05000

	                 Relative
	Element             moles
	H                    0.05000
	N                    0.05000
	O                    0.15000

------------------------------Surface composition------------------------------

Diffuse Double Layer Surface-Complexation Model

Hfo           
	  8.562e-03  Surface charge, eq
	  6.885e+00  sigma, C/m²
	  2.971e-01  psi, V
	 -1.156e+01  -F*psi/RT
	  9.501e-06  exp(-F*psi/RT)
	  6.000e+02  specific area, m²/g
	  1.200e+02  m² for   2.000e-01 g


Hfo_s         
	  1.000e-02  moles
	                                   Mole                     Log
	Species               Moles    Fraction    Molality    Molality

	Hfo_sOH2+         7.797e-03       0.780   7.796e-03      -2.108
	Hfo_sOH           2.188e-03       0.219   2.188e-03      -2.660
	Hfo_sO-           1.407e-05       0.001   1.407e-05      -4.852
	Hfo_sOCu+         3.104e-07       0.000   3.103e-07      -6.508

Hfo_w         
	  1.000e-03  moles
	                                   Mole                     Log
	Species               Moles    Fraction    Molality    Molality

	Hfo_wOH2+         7.797e-04       0.780   7.796e-04      -3.108
	Hfo_wOH           2.188e-04       0.219   2.188e-04      -3.660
	Hfo_wO-           1.407e-06       0.001   1.407e-06      -5.852
	Hfo_wOCu+         1.592e-10       0.000   1.592e-10      -9.798

-----------------------------Solution composition------------------------------

	Elements           Molality       Moles

	Cl                2.000e-03   2.000e-03
	Cu                9.995e-04   9.997e-04
	K                 9.998e-02   1.000e-01
	N                 1.344e-01   1.344e-01

----------------------------Description of solution----------------------------

                                       pH  =   1.716      Charge balance
                                       pe  =  18.741      Adjusted to redox equilibrium
      Specific Conductance (µS/cm,  25°C)  = 21472
                          Density (g/cm³)  =   1.00438
                               Volume (L)  =   1.00808
                        Activity of water  =   0.996
                 Ionic strength (mol/kgw)  =   1.309e-01
                       Mass of water (kg)  =   1.000e+00
                 Total alkalinity (eq/kg)  =  -2.362e-02
                         Temperature (°C)  =  25.00
                  Electrical balance (eq)  =  -8.562e-03
 Percent error, 100*(Cat-|An|)/(Cat+|An|)  =  -3.30
                               Iterations  =  22
                                  Total H  = 1.110580e+02
                                  Total O  = 5.591387e+01

----------------------------Distribution of species----------------------------

                                               Log       Log       Log    mole V
   Species          Molality    Activity  Molality  Activity     Gamma   cm³/mol

   H+              2.362e-02   1.923e-02    -1.627    -1.716    -0.089      0.00
   OH-             7.073e-13   5.239e-13   -12.150   -12.281    -0.130     -3.65
   H2O             5.551e+01   9.956e-01     1.744    -0.002     0.000     18.07
Cl            2.000e-03
   Cl-             1.998e-03   1.492e-03    -2.699    -2.826    -0.127     18.38
   CuCl+           1.981e-06   1.486e-06    -5.703    -5.828    -0.125      1.01
   CuCl2           1.155e-09   1.191e-09    -8.937    -8.924     0.013     31.02
   CuCl3-          8.407e-15   6.304e-15   -14.075   -14.200    -0.125     (0)  
   CuCl4-2         1.369e-19   4.714e-20   -18.864   -19.327    -0.463     (0)  
   CuCl2-          3.312e-20   2.483e-20   -19.480   -19.605    -0.125     (0)  
   CuCl3-2         1.705e-22   5.873e-23   -21.768   -22.231    -0.463     (0)  
Cu(1)         8.222e-20
   Cu+             4.893e-20   3.526e-20   -19.310   -19.453    -0.142     (0)  
   CuCl2-          3.312e-20   2.483e-20   -19.480   -19.605    -0.125     (0)  
   CuCl3-2         1.705e-22   5.873e-23   -21.768   -22.231    -0.463     (0)  
Cu(2)         9.995e-04
   Cu+2            9.975e-04   3.699e-04    -3.001    -3.432    -0.431    -25.88
   CuCl+           1.981e-06   1.486e-06    -5.703    -5.828    -0.125      1.01
   CuCl2           1.155e-09   1.191e-09    -8.937    -8.924     0.013     31.02
   CuOH+           2.554e-10   1.915e-10    -9.593    -9.718    -0.125     (0)  
   Cu2(OH)2+2      4.646e-14   1.604e-14   -13.333   -13.795    -0.462     (0)  
   Cu(OH)2         2.009e-14   2.071e-14   -13.697   -13.684     0.013     (0)  
   CuCl3-          8.407e-15   6.304e-15   -14.075   -14.200    -0.125     (0)  
   CuCl4-2         1.369e-19   4.714e-20   -18.864   -19.327    -0.463     (0)  
   Cu(OH)3-        8.426e-26   6.459e-26   -25.074   -25.190    -0.115     (0)  
   Cu(OH)4-2       1.932e-36   6.671e-37   -35.714   -36.176    -0.462     (0)  
H(0)          0.000e+00
   H2              0.000e+00   0.000e+00   -44.076   -44.063     0.013     28.61
K             9.998e-02
   K+              9.998e-02   7.440e-02    -1.000    -1.128    -0.128      9.28
N(-3)         0.000e+00
   NH4+            0.000e+00   0.000e+00   -48.875   -49.018    -0.142     18.20
   NH3             0.000e+00   0.000e+00   -56.559   -56.546     0.013     24.42
N(0)          2.243e-03
   N2              1.121e-03   1.156e-03    -2.950    -2.937     0.013     29.29
N(3)          6.020e-14
   NO2-            6.020e-14   4.401e-14   -13.220   -13.356    -0.136     25.28
N(5)          1.322e-01
   NO3-            1.322e-01   9.662e-02    -0.879    -1.015    -0.136     29.81
O(0)          1.074e-04
   O2              5.369e-05   5.533e-05    -4.270    -4.257     0.013     30.40

------------------------------Saturation indices-------------------------------

  Phase               SI** log IAP   log K(298 K,   1 atm)

  H2(g)           -40.96    -44.06   -3.10  H2
  H2O(g)           -1.50     -0.00    1.50  H2O
  N2(g)             0.24     -2.94   -3.18  N2
  NH3(g)          -58.34    -56.55    1.80  NH3
  O2(g)            -1.36     -4.26   -2.89  O2
  Sylvite          -4.85     -3.95    0.90  KCl

**For a gas, SI = log10(fugacity). Fugacity = pressure * phi / 1 atm.
  For ideal gases, phi = 1.

Reaction step 499.

Using solution 0.	
Using surface 1.	
Using reaction 1.	

Reaction 1.	

	  9.980e-01 moles of the following reaction have been added:

	                 Relative
	Reactant            moles

	HNO3                 0.05000

	                 Relative
	Element             moles
	H                    0.05000
	N                    0.05000
	O                    0.15000

------------------------------Surface composition------------------------------

Diffuse Double Layer Surface-Complexation Model

Hfo           
	  8.568e-03  Surface charge, eq
	  6.890e+00  sigma, C/m²
	  2.971e-01  psi, V
	 -1.156e+01  -F*psi/RT
	  9.494e-06  exp(-F*psi/RT)
	  6.000e+02  specific area, m²/g
	  1.200e+02  m² for   2.000e-01 g


Hfo_s         
	  1.000e-02  moles
	                                   Mole                     Log
	Species               Moles    Fraction    Molality    Molality

	Hfo_sOH2+         7.803e-03       0.780   7.801e-03      -2.108
	Hfo_sOH           2.183e-03       0.218   2.183e-03      -2.661
	Hfo_sO-           1.399e-05       0.001   1.399e-05      -4.854
	Hfo_sOCu+         3.081e-07       0.000   3.081e-07      -6.511

Hfo_w         
	  1.000e-03  moles
	                                   Mole                     Log
	Species               Moles    Fraction    Molality    Molality

	Hfo_wOH2+         7.803e-04       0.780   7.801e-04      -3.108
	Hfo_wOH           2.183e-04       0.218   2.183e-04      -3.661
	Hfo_wO-           1.399e-06       0.001   1.399e-06      -5.854
	Hfo_wOCu+         1.580e-10       0.000   1.580e-10      -9.801

-----------------------------Solution composition------------------------------

	Elements           Molality       Moles

	Cl                2.000e-03   2.000e-03
	Cu                9.995e-04   9.997e-04
	K                 9.998e-02   1.000e-01
	N                 1.345e-01   1.345e-01

----------------------------Description of solution----------------------------

                                       pH  =   1.714      Charge balance
                                       pe  =  18.743      Adjusted to redox equilibrium
      Specific Conductance (µS/cm,  25°C)  = 21507
                          Density (g/cm³)  =   1.00439
                               Volume (L)  =   1.00808
                        Activity of water  =   0.996
                 Ionic strength (mol/kgw)  =   1.310e-01
                       Mass of water (kg)  =   1.000e+00
                 Total alkalinity (eq/kg)  =  -2.371e-02
                         Temperature (°C)  =  25.00
                  Electrical balance (eq)  =  -8.568e-03
 Percent error, 100*(Cat-|An|)/(Cat+|An|)  =  -3.30
                               Iterations  =  22
                                  Total H  = 1.110581e+02
                                  Total O  = 5.591417e+01

----------------------------Distribution of species----------------------------

                                               Log       Log       Log    mole V
   Species          Molality    Activity  Molality  Activity     Gamma   cm³/mol

   H+              2.371e-02   1.931e-02    -1.625    -1.714    -0.089      0.00
   OH-             7.045e-13   5.219e-13   -12.152   -12.282    -0.130     -3.65
   H2O             5.551e+01   9.956e-01     1.744    -0.002     0.000     18.07
Cl            2.000e-03
   Cl-             1.998e-03   1.492e-03    -2.699    -2.826    -0.127     18.38
   CuCl+           1.981e-06   1.485e-06    -5.703    -5.828    -0.125      1.01
   CuCl2           1.155e-09   1.190e-09    -8.938    -8.924     0.013     31.02
   CuCl3-          8.404e-15   6.301e-15   -14.076   -14.201    -0.125     (0)  
   CuCl4-2         1.369e-19   4.712e-20   -18.864   -19.327    -0.463     (0)  
   CuCl2-          3.295e-20   2.470e-20   -19.482   -19.607    -0.125     (0)  
   CuCl3-2         1.697e-22   5.842e-23   -21.770   -22.233    -0.463     (0)  
Cu(1)         8.181e-20
   Cu+             4.869e-20   3.509e-20   -19.313   -19.455    -0.142     (0)  
   CuCl2-          3.295e-20   2.470e-20   -19.482   -19.607    -0.125     (0)  
   CuCl3-2         1.697e-22   5.842e-23   -21.770   -22.233    -0.463     (0)  
Cu(2)         9.995e-04
   Cu+2            9.975e-04   3.698e-04    -3.001    -3.432    -0.431    -25.88
   CuCl+           1.981e-06   1.485e-06    -5.703    -5.828    -0.125      1.01
   CuCl2           1.155e-09   1.190e-09    -8.938    -8.924     0.013     31.02
   CuOH+           2.543e-10   1.907e-10    -9.595    -9.720    -0.125     (0)  
   Cu2(OH)2+2      4.609e-14   1.591e-14   -13.336   -13.798    -0.462     (0)  
   Cu(OH)2         1.993e-14   2.054e-14   -13.700   -13.687     0.013     (0)  
   CuCl3-          8.404e-15   6.301e-15   -14.076   -14.201    -0.125     (0)  
   CuCl4-2         1.369e-19   4.712e-20   -18.864   -19.327    -0.463     (0)  
   Cu(OH)3-        8.326e-26   6.382e-26   -25.080   -25.195    -0.115     (0)  
   Cu(OH)4-2       1.902e-36   6.565e-37   -35.721   -36.183    -0.462     (0)  
H(0)          0.000e+00
   H2              0.000e+00   0.000e+00   -44.077   -44.064     0.013     28.61
K             9.998e-02
   K+              9.998e-02   7.439e-02    -1.000    -1.128    -0.128      9.28
N(-3)         0.000e+00
   NH4+            0.000e+00   0.000e+00   -48.875   -49.017    -0.142     18.20
   NH3             0.000e+00   0.000e+00   -56.560   -56.547     0.013     24.42
N(0)          2.243e-03
   N2              1.121e-03   1.156e-03    -2.950    -2.937     0.013     29.29
N(3)          6.014e-14
   NO2-            6.014e-14   4.396e-14   -13.221   -13.357    -0.136     25.28
N(5)          1.323e-01
   NO3-            1.323e-01   9.669e-02    -0.879    -1.015    -0.136     29.81
O(0)          1.078e-04
   O2              5.388e-05   5.553e-05    -4.269    -4.255     0.013     30.40

------------------------------Saturation indices-------------------------------

  Phase               SI** log IAP   log K(298 K,   1 atm)

  H2(g)           -40.96    -44.06   -3.10  H2
  H2O(g)           -1.50     -0.00    1.50  H2O
  N2(g)             0.24     -2.94   -3.18  N2
  NH3(g)          -58.34    -56.55    1.80  NH3
  O2(g)            -1.36     -4.26   -2.89  O2
  Sylvite          -4.85     -3.95    0.90  KCl

**For a gas, SI = log10(fugacity). Fugacity = pressure * phi / 1 atm.
  For ideal gases, phi = 1.

Reaction step 500.

Using solution 0.	
Using surface 1.	
Using reaction 1.	

Reaction 1.	

	  1.000e+00 moles of the following reaction have been added:

	                 Relative
	Reactant            moles

	HNO3                 0.05000

	                 Relative
	Element             moles
	H                    0.05000
	N                    0.05000
	O                    0.15000

------------------------------Surface composition------------------------------

Diffuse Double Layer Surface-Complexation Model

Hfo           
	  8.574e-03  Surface charge, eq
	  6.895e+00  sigma, C/m²
	  2.971e-01  psi, V
	 -1.157e+01  -F*psi/RT
	  9.487e-06  exp(-F*psi/RT)
	  6.000e+02  specific area, m²/g
	  1.200e+02  m² for   2.000e-01 g


Hfo_s         
	  1.000e-02  moles
	                                   Mole                     Log
	Species               Moles    Fraction    Molality    Molality

	Hfo_sOH2+         7.808e-03       0.781   7.807e-03      -2.108
	Hfo_sOH           2.177e-03       0.218   2.177e-03      -2.662
	Hfo_sO-           1.391e-05       0.001   1.391e-05      -4.857
	Hfo_sOCu+         3.059e-07       0.000   3.058e-07      -6.515

Hfo_w         
	  1.000e-03  moles
	                                   Mole                     Log
	Species               Moles    Fraction    Molality    Molality

	Hfo_wOH2+         7.809e-04       0.781   7.807e-04      -3.108
	Hfo_wOH           2.178e-04       0.218   2.177e-04      -3.662
	Hfo_wO-           1.391e-06       0.001   1.391e-06      -5.857
	Hfo_wOCu+         1.569e-10       0.000   1.568e-10      -9.805

-----------------------------Solution composition------------------------------

	Elements           Molality       Moles

	Cl                2.000e-03   2.000e-03
	Cu                9.995e-04   9.997e-04
	K                 9.998e-02   1.000e-01
	N                 1.346e-01   1.346e-01

----------------------------Description of solution----------------------------

                                       pH  =   1.713      Charge balance
                                       pe  =  18.745      Adjusted to redox equilibrium
      Specific Conductance (µS/cm,  25°C)  = 21542
                          Density (g/cm³)  =   1.00439
                               Volume (L)  =   1.00808
                        Activity of water  =   0.996
                 Ionic strength (mol/kgw)  =   1.311e-01
                       Mass of water (kg)  =   1.000e+00
                 Total alkalinity (eq/kg)  =  -2.380e-02
                         Temperature (°C)  =  25.00
                  Electrical balance (eq)  =  -8.574e-03
 Percent error, 100*(Cat-|An|)/(Cat+|An|)  =  -3.30
                               Iterations  =  22
                                  Total H  = 1.110582e+02
                                  Total O  = 5.591447e+01

----------------------------Distribution of species----------------------------

                                               Log       Log       Log    mole V
   Species          Molality    Activity  Molality  Activity     Gamma   cm³/mol

   H+              2.380e-02   1.938e-02    -1.623    -1.713    -0.089      0.00
   OH-             7.018e-13   5.198e-13   -12.154   -12.284    -0.130     -3.65
   H2O             5.551e+01   9.956e-01     1.744    -0.002     0.000     18.07
Cl            2.000e-03
   Cl-             1.998e-03   1.492e-03    -2.699    -2.826    -0.127     18.38
   CuCl+           1.981e-06   1.485e-06    -5.703    -5.828    -0.125      1.01
   CuCl2           1.154e-09   1.190e-09    -8.938    -8.925     0.013     31.02
   CuCl3-          8.401e-15   6.298e-15   -14.076   -14.201    -0.125     (0)  
   CuCl4-2         1.368e-19   4.710e-20   -18.864   -19.327    -0.463     (0)  
   CuCl2-          3.278e-20   2.458e-20   -19.484   -19.610    -0.125     (0)  
   CuCl3-2         1.688e-22   5.811e-23   -21.773   -22.236    -0.463     (0)  
Cu(1)         8.140e-20
   Cu+             4.845e-20   3.491e-20   -19.315   -19.457    -0.142     (0)  
   CuCl2-          3.278e-20   2.458e-20   -19.484   -19.610    -0.125     (0)  
   CuCl3-2         1.688e-22   5.811e-23   -21.773   -22.236    -0.463     (0)  
Cu(2)         9.995e-04
   Cu+2            9.975e-04   3.697e-04    -3.001    -3.432    -0.431    -25.88
   CuCl+           1.981e-06   1.485e-06    -5.703    -5.828    -0.125      1.01
   CuCl2           1.154e-09   1.190e-09    -8.938    -8.925     0.013     31.02
   CuOH+           2.533e-10   1.899e-10    -9.596    -9.721    -0.125     (0)  
   Cu2(OH)2+2      4.572e-14   1.578e-14   -13.340   -13.802    -0.462     (0)  
   Cu(OH)2         1.977e-14   2.038e-14   -13.704   -13.691     0.013     (0)  
   CuCl3-          8.401e-15   6.298e-15   -14.076   -14.201    -0.125     (0)  
   CuCl4-2         1.368e-19   4.710e-20   -18.864   -19.327    -0.463     (0)  
   Cu(OH)3-        8.227e-26   6.306e-26   -25.085   -25.200    -0.116     (0)  
   Cu(OH)4-2       1.872e-36   6.462e-37   -35.728   -36.190    -0.462     (0)  
H(0)          0.000e+00
   H2              0.000e+00   0.000e+00   -44.078   -44.065     0.013     28.61
K             9.998e-02
   K+              9.998e-02   7.439e-02    -1.000    -1.128    -0.128      9.28
N(-3)         0.000e+00
   NH4+            0.000e+00   0.000e+00   -48.874   -49.017    -0.142     18.20
   NH3             0.000e+00   0.000e+00   -56.561   -56.548     0.013     24.42
N(0)          2.243e-03
   N2              1.121e-03   1.156e-03    -2.950    -2.937     0.013     29.29
N(3)          6.007e-14
   NO2-            6.007e-14   4.391e-14   -13.221   -13.357    -0.136     25.28
N(5)          1.324e-01
   NO3-            1.324e-01   9.675e-02    -0.878    -1.014    -0.136     29.81
O(0)          1.082e-04
   O2              5.408e-05   5.573e-05    -4.267    -4.254     0.013     30.40

------------------------------Saturation indices-------------------------------

  Phase               SI** log IAP   log K(298 K,   1 atm)

  H2(g)           -40.96    -44.06   -3.10  H2
  H2O(g)           -1.50     -0.00    1.50  H2O
  N2(g)             0.24     -2.94   -3.18  N2
  NH3(g)          -58.34    -56.55    1.80  NH3
  O2(g)            -1.36     -4.25   -2.89  O2
  Sylvite          -4.85     -3.95    0.90  KCl

**For a gas, SI = log10(fugacity). Fugacity = pressure * phi / 1 atm.
  For ideal gases, phi = 1.

------------------
End of simulation.
------------------

------------------------------------
Reading input data for simulation 2.
------------------------------------

-------------------------------
End of Run after 2.929 Seconds.
-------------------------------

