WARNING: Database file from DATABASE keyword is used; command line argument ignored.
   Input file: C:\Users\Eirik\Desktop\phreeqc-3.6.2-15100-x64\bin\o3.pqi
  Output file: C:\Users\Eirik\Desktop\phreeqc-3.6.2-15100-x64\bin\o3.pqi.out
Database file: C:\Users\Eirik\Desktop\phreeqc-3.6.2-15100-x64\database\phreeqc.dat

------------------
Reading data base.
------------------

	SOLUTION_MASTER_SPECIES
	SOLUTION_SPECIES
	PHASES
	EXCHANGE_MASTER_SPECIES
	EXCHANGE_SPECIES
	SURFACE_MASTER_SPECIES
	SURFACE_SPECIES
	RATES
	END
------------------------------------
Reading input data for simulation 1.
------------------------------------

	Database file: C:\Users\Eirik\Desktop\phreeqc-3.6.2-15100-x64\database\phreeqc.dat
	SURFACE 1
	 Hfo_w  0.001 600 0.2     # -amount of sorption1      -specific site density     -mass of solid
	 Hfo_s  0.01
	SOLUTION 0             # Input Solution
	    units   mol/kgw
	    pH 12
		Pb 0.001
	    K 0.100
	    N(5) 0.100 charge
	    Cl 0.002
	REACTION
		HNO3 0.050 
	    1 in 500
	SELECTED_OUTPUT
	        file   exercise5pb.xls
	        si     Pb
	USER_PUNCH		#Writes Cu data (mol) to exercise5.xls
		headings Cu(moles)
		20 PUNCH TOTMOLE("Pb")
	USER_GRAPH
	     -headings  time Pb
	     -chart_title "Sorption of Lead"
	    -axis_titles "pH"                  "Sorbed Pb"
	     -start
	      10 Graph_x   -LA("H+")
		  20 Graph_y    0.001-TOTMOLE("Pb")
	-End
WARNING: Did not find phase, Pb.
-------------------------------------------
Beginning of initial solution calculations.
-------------------------------------------

Initial solution 0.	

-----------------------------Solution composition------------------------------

	Elements           Molality       Moles

	Cl                2.000e-03   2.000e-03
	K                 1.000e-01   1.000e-01
	N(5)              8.294e-02   8.294e-02  Charge balance
	Pb                1.000e-03   1.000e-03

----------------------------Description of solution----------------------------

                                       pH  =  12.000    
                                       pe  =   4.000    
      Specific Conductance (µS/cm,  25°C)  = 13664
                          Density (g/cm³)  =   1.00325
                               Volume (L)  =   1.00635
                        Activity of water  =   0.997
                 Ionic strength (mol/kgw)  =   1.008e-01
                       Mass of water (kg)  =   1.000e+00
                 Total alkalinity (eq/kg)  =   1.706e-02
                         Temperature (°C)  =  25.00
                  Electrical balance (eq)  =  -9.096e-14
 Percent error, 100*(Cat-|An|)/(Cat+|An|)  =  -0.00
                               Iterations  =   9
                                  Total H  = 1.110295e+02
                                  Total O  = 5.577209e+01

----------------------------Distribution of species----------------------------

                                               Log       Log       Log    mole V
   Species          Molality    Activity  Molality  Activity     Gamma   cm³/mol

   OH-             1.326e-02   1.009e-02    -1.878    -1.996    -0.119     -3.73
   H+              1.212e-12   1.000e-12   -11.916   -12.000    -0.084      0.00
   H2O             5.551e+01   9.966e-01     1.744    -0.001     0.000     18.07
Cl            2.000e-03
   Cl-             2.000e-03   1.532e-03    -2.699    -2.815    -0.116     18.34
   PbCl+           1.206e-13   9.419e-14   -12.919   -13.026    -0.107      8.11
   PbCl2           2.235e-16   2.287e-16   -15.651   -15.641     0.010     34.97
   PbCl3-          3.565e-19   2.783e-19   -18.448   -18.555    -0.107     66.22
   PbCl4-2         5.493e-22   2.041e-22   -21.260   -21.690    -0.430    102.43
H(0)          1.383e-35
   H2              6.917e-36   7.079e-36   -35.160   -35.150     0.010     28.61
K             1.000e-01
   K+              1.000e-01   7.636e-02    -1.000    -1.117    -0.117      9.24
N(5)          8.294e-02
   NO3-            8.294e-02   6.243e-02    -1.081    -1.205    -0.123     29.77
   PbNO3+          1.826e-12   1.426e-12   -11.738   -11.846    -0.107     (0)  
O(0)          1.614e-22
   O2              8.072e-23   8.261e-23   -22.093   -22.083     0.010     30.40
Pb            1.000e-03
   Pb(OH)4-2       8.181e-04   3.040e-04    -3.087    -3.517    -0.430     (0)  
   Pb(OH)3-        1.705e-04   1.331e-04    -3.768    -3.876    -0.107     (0)  
   Pb(OH)2         1.137e-05   1.164e-05    -4.944    -4.934     0.010     (0)  
   PbOH+           3.844e-08   3.001e-08    -7.415    -7.523    -0.107     (0)  
   Pb3(OH)4+2      1.289e-11   4.789e-12   -10.890   -11.320    -0.430     (0)  
   Pb+2            4.156e-12   1.544e-12   -11.381   -11.811    -0.430    -14.84
   PbNO3+          1.826e-12   1.426e-12   -11.738   -11.846    -0.107     (0)  
   PbCl+           1.206e-13   9.419e-14   -12.919   -13.026    -0.107      8.11
   PbCl2           2.235e-16   2.287e-16   -15.651   -15.641     0.010     34.97
   Pb2OH+3         9.624e-18   1.037e-18   -17.017   -17.984    -0.967     (0)  
   PbCl3-          3.565e-19   2.783e-19   -18.448   -18.555    -0.107     66.22
   PbCl4-2         5.493e-22   2.041e-22   -21.260   -21.690    -0.430    102.43

------------------------------Saturation indices-------------------------------

  Phase               SI** log IAP   log K(298 K,   1 atm)

  H2(g)           -32.05    -35.15   -3.10  H2
  H2O(g)           -1.50     -0.00    1.50  H2O
  O2(g)           -19.19    -22.08   -2.89  O2
  Pb(OH)2           4.04     12.19    8.15  Pb(OH)2
  Sylvite          -4.83     -3.93    0.90  KCl

**For a gas, SI = log10(fugacity). Fugacity = pressure * phi / 1 atm.
  For ideal gases, phi = 1.

-----------------------------------------
Beginning of batch-reaction calculations.
-----------------------------------------

Reaction step 1.

Using solution 0.	
Using surface 1.	
Using reaction 1.	

Reaction 1.	

	  2.000e-03 moles of the following reaction have been added:

	                 Relative
	Reactant            moles

	HNO3                 0.05000

	                 Relative
	Element             moles
	H                    0.05000
	N                    0.05000
	O                    0.15000

------------------------------Surface composition------------------------------

Diffuse Double Layer Surface-Complexation Model

Hfo           
	 -1.359e-03  Surface charge, eq
	 -1.093e+00  sigma, C/m²
	 -2.096e-01  psi, V
	  8.160e+00  -F*psi/RT
	  3.497e+03  exp(-F*psi/RT)
	  6.000e+02  specific area, m²/g
	  1.200e+02  m² for   2.000e-01 g


Hfo_s         
	  1.000e-02  moles
	                                   Mole                     Log
	Species               Moles    Fraction    Molality    Molality

	Hfo_sOH           6.172e-03       0.617   6.172e-03      -2.210
	Hfo_sO-           2.476e-03       0.248   2.476e-03      -2.606
	Hfo_sOPb+         1.000e-03       0.100   1.000e-03      -3.000
	Hfo_sOH2+         3.525e-04       0.035   3.525e-04      -3.453

Hfo_w         
	  1.000e-03  moles
	                                   Mole                     Log
	Species               Moles    Fraction    Molality    Molality

	Hfo_wOH           6.857e-04       0.686   6.858e-04      -3.164
	Hfo_wO-           2.751e-04       0.275   2.751e-04      -3.561
	Hfo_wOH2+         3.916e-05       0.039   3.916e-05      -4.407
	Hfo_wOPb+         4.963e-09       0.000   4.963e-09      -8.304

-----------------------------Solution composition------------------------------

	Elements           Molality       Moles

	Cl                2.000e-03   2.000e-03
	K                 1.000e-01   1.000e-01
	N                 8.304e-02   8.304e-02
	Pb                1.104e-12   1.104e-12

----------------------------Description of solution----------------------------

                                       pH  =  12.077      Charge balance
                                       pe  =   6.268      Adjusted to redox equilibrium
      Specific Conductance (µS/cm,  25°C)  = 14020
                          Density (g/cm³)  =   1.00297
                               Volume (L)  =   1.00625
                        Activity of water  =   0.997
                 Ionic strength (mol/kgw)  =   9.933e-02
                       Mass of water (kg)  =   9.999e-01
                 Total alkalinity (eq/kg)  =   1.580e-02
                         Temperature (°C)  =  25.00
                  Electrical balance (eq)  =   1.359e-03
 Percent error, 100*(Cat-|An|)/(Cat+|An|)  =   0.68
                               Iterations  =  15
                                  Total H  = 1.110220e+02
                                  Total O  = 5.576139e+01

----------------------------Distribution of species----------------------------

                                               Log       Log       Log    mole V
   Species          Molality    Activity  Molality  Activity     Gamma   cm³/mol

   OH-             1.580e-02   1.204e-02    -1.801    -1.919    -0.118     -3.73
   H+              1.014e-12   8.375e-13   -11.994   -12.077    -0.083      0.00
   H2O             5.551e+01   9.966e-01     1.744    -0.001     0.000     18.07
Cl            2.000e-03
   Cl-             2.000e-03   1.534e-03    -2.699    -2.814    -0.115     18.34
   PbCl+           6.789e-23   5.306e-23   -22.168   -22.275    -0.107      8.11
   PbCl2           1.261e-25   1.290e-25   -24.899   -24.889     0.010     34.97
   PbCl3-          2.012e-28   1.572e-28   -27.696   -27.803    -0.107     66.22
   PbCl4-2         3.094e-31   1.155e-31   -30.509   -30.938    -0.428    102.42
H(0)          2.821e-40
   H2              1.411e-40   1.443e-40   -39.851   -39.841     0.010     28.61
K             1.000e-01
   K+              1.000e-01   7.648e-02    -1.000    -1.116    -0.116      9.24
N(-3)         0.000e+00
   NH3             0.000e+00   0.000e+00   -50.228   -50.218     0.010     24.42
   NH4+            0.000e+00   0.000e+00   -52.923   -53.050    -0.128     18.17
N(0)          2.200e-03
   N2              1.100e-03   1.126e-03    -2.959    -2.949     0.010     29.29
N(3)          6.144e-10
   NO2-            6.144e-10   4.632e-10    -9.212    -9.334    -0.123     25.23
N(5)          8.084e-02
   NO3-            8.084e-02   6.095e-02    -1.092    -1.215    -0.123     29.77
   PbNO3+          1.002e-21   7.832e-22   -20.999   -21.106    -0.107     (0)  
O(0)          3.886e-13
   O2              1.943e-13   1.988e-13   -12.712   -12.702     0.010     30.40
Pb            1.104e-12
   Pb(OH)4-2       9.313e-13   3.475e-13   -12.031   -12.459    -0.428     (0)  
   Pb(OH)3-        1.631e-13   1.275e-13   -12.788   -12.895    -0.107     (0)  
   Pb(OH)2         9.120e-15   9.331e-15   -14.040   -14.030     0.010     (0)  
   PbOH+           2.579e-17   2.016e-17   -16.589   -16.696    -0.107     (0)  
   Pb+2            2.328e-21   8.687e-22   -20.633   -21.061    -0.428    -14.85
   PbNO3+          1.002e-21   7.832e-22   -20.999   -21.106    -0.107     (0)  
   PbCl+           6.789e-23   5.306e-23   -22.168   -22.275    -0.107      8.11
   PbCl2           1.261e-25   1.290e-25   -24.899   -24.889     0.010     34.97
   PbCl3-          2.012e-28   1.572e-28   -27.696   -27.803    -0.107     66.22
   PbCl4-2         3.094e-31   1.155e-31   -30.509   -30.938    -0.428    102.42
   Pb2OH+3         3.601e-36   3.920e-37   -35.444   -36.407    -0.963     (0)  
   Pb3(OH)4+2      4.643e-39   1.733e-39   -38.333   -38.761    -0.428     (0)  

------------------------------Saturation indices-------------------------------

  Phase               SI** log IAP   log K(298 K,   1 atm)

  H2(g)           -36.74    -39.84   -3.10  H2
  H2O(g)           -1.50     -0.00    1.50  H2O
  N2(g)             0.23     -2.95   -3.18  N2
  NH3(g)          -52.01    -50.22    1.80  NH3
  O2(g)            -9.81    -12.70   -2.89  O2
  Pb(OH)2          -5.06      3.09    8.15  Pb(OH)2
  Sylvite          -4.83     -3.93    0.90  KCl

**For a gas, SI = log10(fugacity). Fugacity = pressure * phi / 1 atm.
  For ideal gases, phi = 1.

Reaction step 2.

Using solution 0.	
Using surface 1.	
Using reaction 1.	

Reaction 1.	

	  4.000e-03 moles of the following reaction have been added:

	                 Relative
	Reactant            moles

	HNO3                 0.05000

	                 Relative
	Element             moles
	H                    0.05000
	N                    0.05000
	O                    0.15000

------------------------------Surface composition------------------------------

Diffuse Double Layer Surface-Complexation Model

Hfo           
	 -1.356e-03  Surface charge, eq
	 -1.090e+00  sigma, C/m²
	 -2.095e-01  psi, V
	  8.155e+00  -F*psi/RT
	  3.480e+03  exp(-F*psi/RT)
	  6.000e+02  specific area, m²/g
	  1.200e+02  m² for   2.000e-01 g


Hfo_s         
	  1.000e-02  moles
	                                   Mole                     Log
	Species               Moles    Fraction    Molality    Molality

	Hfo_sOH           6.174e-03       0.617   6.174e-03      -2.209
	Hfo_sO-           2.473e-03       0.247   2.473e-03      -2.607
	Hfo_sOPb+         1.000e-03       0.100   1.000e-03      -3.000
	Hfo_sOH2+         3.530e-04       0.035   3.530e-04      -3.452

Hfo_w         
	  1.000e-03  moles
	                                   Mole                     Log
	Species               Moles    Fraction    Molality    Molality

	Hfo_wOH           6.860e-04       0.686   6.860e-04      -3.164
	Hfo_wO-           2.748e-04       0.275   2.748e-04      -3.561
	Hfo_wOH2+         3.922e-05       0.039   3.923e-05      -4.406
	Hfo_wOPb+         4.963e-09       0.000   4.963e-09      -8.304

-----------------------------Solution composition------------------------------

	Elements           Molality       Moles

	Cl                2.000e-03   2.000e-03
	K                 1.000e-01   1.000e-01
	N                 8.314e-02   8.314e-02
	Pb                1.089e-12   1.089e-12

----------------------------Description of solution----------------------------

                                       pH  =  12.074      Charge balance
                                       pe  =   6.272      Adjusted to redox equilibrium
      Specific Conductance (µS/cm,  25°C)  = 14008
                          Density (g/cm³)  =   1.00297
                               Volume (L)  =   1.00625
                        Activity of water  =   0.997
                 Ionic strength (mol/kgw)  =   9.933e-02
                       Mass of water (kg)  =   9.999e-01
                 Total alkalinity (eq/kg)  =   1.571e-02
                         Temperature (°C)  =  25.00
                  Electrical balance (eq)  =   1.356e-03
 Percent error, 100*(Cat-|An|)/(Cat+|An|)  =   0.68
                               Iterations  =  15
                                  Total H  = 1.110221e+02
                                  Total O  = 5.576169e+01

----------------------------Distribution of species----------------------------

                                               Log       Log       Log    mole V
   Species          Molality    Activity  Molality  Activity     Gamma   cm³/mol

   OH-             1.571e-02   1.197e-02    -1.804    -1.922    -0.118     -3.73
   H+              1.021e-12   8.427e-13   -11.991   -12.074    -0.083      0.00
   H2O             5.551e+01   9.966e-01     1.744    -0.001     0.000     18.07
Cl            2.000e-03
   Cl-             2.000e-03   1.534e-03    -2.699    -2.814    -0.115     18.34
   PbCl+           6.862e-23   5.363e-23   -22.164   -22.271    -0.107      8.11
   PbCl2           1.275e-25   1.304e-25   -24.895   -24.885     0.010     34.97
   PbCl3-          2.034e-28   1.589e-28   -27.692   -27.799    -0.107     66.22
   PbCl4-2         3.128e-31   1.167e-31   -30.505   -30.933    -0.428    102.42
H(0)          2.813e-40
   H2              1.406e-40   1.439e-40   -39.852   -39.842     0.010     28.61
K             1.000e-01
   K+              1.000e-01   7.648e-02    -1.000    -1.116    -0.116      9.24
N(-3)         0.000e+00
   NH3             0.000e+00   0.000e+00   -50.229   -50.220     0.010     24.42
   NH4+            0.000e+00   0.000e+00   -52.922   -53.050    -0.128     18.17
N(0)          2.200e-03
   N2              1.100e-03   1.126e-03    -2.959    -2.949     0.010     29.29
N(3)          6.133e-10
   NO2-            6.133e-10   4.624e-10    -9.212    -9.335    -0.123     25.23
N(5)          8.094e-02
   NO3-            8.094e-02   6.103e-02    -1.092    -1.214    -0.123     29.77
   PbNO3+          1.014e-21   7.926e-22   -20.994   -21.101    -0.107     (0)  
O(0)          3.909e-13
   O2              1.955e-13   2.000e-13   -12.709   -12.699     0.010     30.40
Pb            1.089e-12
   Pb(OH)4-2       9.185e-13   3.428e-13   -12.037   -12.465    -0.428     (0)  
   Pb(OH)3-        1.619e-13   1.265e-13   -12.791   -12.898    -0.107     (0)  
   Pb(OH)2         9.106e-15   9.316e-15   -14.041   -14.031     0.010     (0)  
   PbOH+           2.591e-17   2.025e-17   -16.587   -16.694    -0.107     (0)  
   Pb+2            2.353e-21   8.780e-22   -20.628   -21.056    -0.428    -14.85
   PbNO3+          1.014e-21   7.926e-22   -20.994   -21.101    -0.107     (0)  
   PbCl+           6.862e-23   5.363e-23   -22.164   -22.271    -0.107      8.11
   PbCl2           1.275e-25   1.304e-25   -24.895   -24.885     0.010     34.97
   PbCl3-          2.034e-28   1.589e-28   -27.692   -27.799    -0.107     66.22
   PbCl4-2         3.128e-31   1.167e-31   -30.505   -30.933    -0.428    102.42
   Pb2OH+3         3.657e-36   3.980e-37   -35.437   -36.400    -0.963     (0)  
   Pb3(OH)4+2      4.678e-39   1.746e-39   -38.330   -38.758    -0.428     (0)  

------------------------------Saturation indices-------------------------------

  Phase               SI** log IAP   log K(298 K,   1 atm)

  H2(g)           -36.74    -39.84   -3.10  H2
  H2O(g)           -1.50     -0.00    1.50  H2O
  N2(g)             0.23     -2.95   -3.18  N2
  NH3(g)          -52.02    -50.22    1.80  NH3
  O2(g)            -9.81    -12.70   -2.89  O2
  Pb(OH)2          -5.06      3.09    8.15  Pb(OH)2
  Sylvite          -4.83     -3.93    0.90  KCl

**For a gas, SI = log10(fugacity). Fugacity = pressure * phi / 1 atm.
  For ideal gases, phi = 1.

Reaction step 3.

Using solution 0.	
Using surface 1.	
Using reaction 1.	

Reaction 1.	

	  6.000e-03 moles of the following reaction have been added:

	                 Relative
	Reactant            moles

	HNO3                 0.05000

	                 Relative
	Element             moles
	H                    0.05000
	N                    0.05000
	O                    0.15000

------------------------------Surface composition------------------------------

Diffuse Double Layer Surface-Complexation Model

Hfo           
	 -1.353e-03  Surface charge, eq
	 -1.088e+00  sigma, C/m²
	 -2.094e-01  psi, V
	  8.150e+00  -F*psi/RT
	  3.463e+03  exp(-F*psi/RT)
	  6.000e+02  specific area, m²/g
	  1.200e+02  m² for   2.000e-01 g


Hfo_s         
	  1.000e-02  moles
	                                   Mole                     Log
	Species               Moles    Fraction    Molality    Molality

	Hfo_sOH           6.175e-03       0.618   6.176e-03      -2.209
	Hfo_sO-           2.471e-03       0.247   2.471e-03      -2.607
	Hfo_sOPb+         1.000e-03       0.100   1.000e-03      -3.000
	Hfo_sOH2+         3.536e-04       0.035   3.536e-04      -3.451

Hfo_w         
	  1.000e-03  moles
	                                   Mole                     Log
	Species               Moles    Fraction    Molality    Molality

	Hfo_wOH           6.862e-04       0.686   6.862e-04      -3.164
	Hfo_wO-           2.745e-04       0.275   2.746e-04      -3.561
	Hfo_wOH2+         3.929e-05       0.039   3.929e-05      -4.406
	Hfo_wOPb+         4.963e-09       0.000   4.963e-09      -8.304

-----------------------------Solution composition------------------------------

	Elements           Molality       Moles

	Cl                2.000e-03   2.000e-03
	K                 1.000e-01   1.000e-01
	N                 8.324e-02   8.324e-02
	Pb                1.076e-12   1.075e-12

----------------------------Description of solution----------------------------

                                       pH  =  12.072      Charge balance
                                       pe  =   6.275      Adjusted to redox equilibrium
      Specific Conductance (µS/cm,  25°C)  = 13996
                          Density (g/cm³)  =   1.00297
                               Volume (L)  =   1.00626
                        Activity of water  =   0.997
                 Ionic strength (mol/kgw)  =   9.933e-02
                       Mass of water (kg)  =   9.999e-01
                 Total alkalinity (eq/kg)  =   1.561e-02
                         Temperature (°C)  =  25.00
                  Electrical balance (eq)  =   1.353e-03
 Percent error, 100*(Cat-|An|)/(Cat+|An|)  =   0.68
                               Iterations  =  15
                                  Total H  = 1.110221e+02
                                  Total O  = 5.576199e+01

----------------------------Distribution of species----------------------------

                                               Log       Log       Log    mole V
   Species          Molality    Activity  Molality  Activity     Gamma   cm³/mol

   OH-             1.561e-02   1.190e-02    -1.807    -1.925    -0.118     -3.73
   H+              1.027e-12   8.479e-13   -11.988   -12.072    -0.083      0.00
   H2O             5.551e+01   9.966e-01     1.744    -0.001     0.000     18.07
Cl            2.000e-03
   Cl-             2.000e-03   1.534e-03    -2.699    -2.814    -0.115     18.34
   PbCl+           6.936e-23   5.421e-23   -22.159   -22.266    -0.107      8.11
   PbCl2           1.288e-25   1.318e-25   -24.890   -24.880     0.010     34.97
   PbCl3-          2.056e-28   1.607e-28   -27.687   -27.794    -0.107     66.22
   PbCl4-2         3.162e-31   1.180e-31   -30.500   -30.928    -0.428    102.42
H(0)          2.804e-40
   H2              1.402e-40   1.435e-40   -39.853   -39.843     0.010     28.61
K             1.000e-01
   K+              1.000e-01   7.648e-02    -1.000    -1.116    -0.116      9.24
N(-3)         0.000e+00
   NH3             0.000e+00   0.000e+00   -50.231   -50.221     0.010     24.42
   NH4+            0.000e+00   0.000e+00   -52.921   -53.049    -0.128     18.17
N(0)          2.200e-03
   N2              1.100e-03   1.126e-03    -2.959    -2.949     0.010     29.29
N(3)          6.122e-10
   NO2-            6.122e-10   4.616e-10    -9.213    -9.336    -0.123     25.23
N(5)          8.104e-02
   NO3-            8.104e-02   6.110e-02    -1.091    -1.214    -0.123     29.77
   PbNO3+          1.026e-21   8.021e-22   -20.989   -21.096    -0.107     (0)  
O(0)          3.932e-13
   O2              1.966e-13   2.012e-13   -12.706   -12.696     0.010     30.40
Pb            1.076e-12
   Pb(OH)4-2       9.058e-13   3.380e-13   -12.043   -12.471    -0.428     (0)  
   Pb(OH)3-        1.606e-13   1.255e-13   -12.794   -12.901    -0.107     (0)  
   Pb(OH)2         9.091e-15   9.302e-15   -14.041   -14.031     0.010     (0)  
   PbOH+           2.603e-17   2.034e-17   -16.585   -16.692    -0.107     (0)  
   Pb+2            2.378e-21   8.875e-22   -20.624   -21.052    -0.428    -14.85
   PbNO3+          1.026e-21   8.021e-22   -20.989   -21.096    -0.107     (0)  
   PbCl+           6.936e-23   5.421e-23   -22.159   -22.266    -0.107      8.11
   PbCl2           1.288e-25   1.318e-25   -24.890   -24.880     0.010     34.97
   PbCl3-          2.056e-28   1.607e-28   -27.687   -27.794    -0.107     66.22
   PbCl4-2         3.162e-31   1.180e-31   -30.500   -30.928    -0.428    102.42
   Pb2OH+3         3.713e-36   4.042e-37   -35.430   -36.393    -0.963     (0)  
   Pb3(OH)4+2      4.714e-39   1.759e-39   -38.327   -38.755    -0.428     (0)  

------------------------------Saturation indices-------------------------------

  Phase               SI** log IAP   log K(298 K,   1 atm)

  H2(g)           -36.74    -39.84   -3.10  H2
  H2O(g)           -1.50     -0.00    1.50  H2O
  N2(g)             0.23     -2.95   -3.18  N2
  NH3(g)          -52.02    -50.22    1.80  NH3
  O2(g)            -9.80    -12.70   -2.89  O2
  Pb(OH)2          -5.06      3.09    8.15  Pb(OH)2
  Sylvite          -4.83     -3.93    0.90  KCl

**For a gas, SI = log10(fugacity). Fugacity = pressure * phi / 1 atm.
  For ideal gases, phi = 1.

Reaction step 4.

Using solution 0.	
Using surface 1.	
Using reaction 1.	

Reaction 1.	

	  8.000e-03 moles of the following reaction have been added:

	                 Relative
	Reactant            moles

	HNO3                 0.05000

	                 Relative
	Element             moles
	H                    0.05000
	N                    0.05000
	O                    0.15000

------------------------------Surface composition------------------------------

Diffuse Double Layer Surface-Complexation Model

Hfo           
	 -1.349e-03  Surface charge, eq
	 -1.085e+00  sigma, C/m²
	 -2.093e-01  psi, V
	  8.145e+00  -F*psi/RT
	  3.446e+03  exp(-F*psi/RT)
	  6.000e+02  specific area, m²/g
	  1.200e+02  m² for   2.000e-01 g


Hfo_s         
	  1.000e-02  moles
	                                   Mole                     Log
	Species               Moles    Fraction    Molality    Molality

	Hfo_sOH           6.177e-03       0.618   6.178e-03      -2.209
	Hfo_sO-           2.469e-03       0.247   2.469e-03      -2.608
	Hfo_sOPb+         1.000e-03       0.100   1.000e-03      -3.000
	Hfo_sOH2+         3.541e-04       0.035   3.542e-04      -3.451

Hfo_w         
	  1.000e-03  moles
	                                   Mole                     Log
	Species               Moles    Fraction    Molality    Molality

	Hfo_wOH           6.864e-04       0.686   6.864e-04      -3.163
	Hfo_wO-           2.743e-04       0.274   2.743e-04      -3.562
	Hfo_wOH2+         3.935e-05       0.039   3.935e-05      -4.405
	Hfo_wOPb+         4.963e-09       0.000   4.963e-09      -8.304

-----------------------------Solution composition------------------------------

	Elements           Molality       Moles

	Cl                2.000e-03   2.000e-03
	K                 1.000e-01   1.000e-01
	N                 8.334e-02   8.334e-02
	Pb                1.062e-12   1.062e-12

----------------------------Description of solution----------------------------

                                       pH  =  12.069      Charge balance
                                       pe  =   6.278      Adjusted to redox equilibrium
      Specific Conductance (µS/cm,  25°C)  = 13984
                          Density (g/cm³)  =   1.00297
                               Volume (L)  =   1.00626
                        Activity of water  =   0.997
                 Ionic strength (mol/kgw)  =   9.933e-02
                       Mass of water (kg)  =   9.999e-01
                 Total alkalinity (eq/kg)  =   1.551e-02
                         Temperature (°C)  =  25.00
                  Electrical balance (eq)  =   1.349e-03
 Percent error, 100*(Cat-|An|)/(Cat+|An|)  =   0.68
                               Iterations  =  15
                                  Total H  = 1.110222e+02
                                  Total O  = 5.576229e+01

----------------------------Distribution of species----------------------------

                                               Log       Log       Log    mole V
   Species          Molality    Activity  Molality  Activity     Gamma   cm³/mol

   OH-             1.551e-02   1.182e-02    -1.809    -1.927    -0.118     -3.73
   H+              1.033e-12   8.532e-13   -11.986   -12.069    -0.083      0.00
   H2O             5.551e+01   9.966e-01     1.744    -0.001     0.000     18.07
Cl            2.000e-03
   Cl-             2.000e-03   1.534e-03    -2.699    -2.814    -0.115     18.34
   PbCl+           7.012e-23   5.480e-23   -22.154   -22.261    -0.107      8.11
   PbCl2           1.302e-25   1.333e-25   -24.885   -24.875     0.010     34.97
   PbCl3-          2.078e-28   1.624e-28   -27.682   -27.789    -0.107     66.22
   PbCl4-2         3.196e-31   1.193e-31   -30.495   -30.923    -0.428    102.42
H(0)          2.796e-40
   H2              1.398e-40   1.430e-40   -39.854   -39.845     0.010     28.61
K             1.000e-01
   K+              1.000e-01   7.648e-02    -1.000    -1.116    -0.116      9.24
N(-3)         0.000e+00
   NH3             0.000e+00   0.000e+00   -50.233   -50.223     0.010     24.42
   NH4+            0.000e+00   0.000e+00   -52.920   -53.048    -0.128     18.17
N(0)          2.200e-03
   N2              1.100e-03   1.126e-03    -2.959    -2.949     0.010     29.29
N(3)          6.112e-10
   NO2-            6.112e-10   4.608e-10    -9.214    -9.336    -0.123     25.23
N(5)          8.114e-02
   NO3-            8.114e-02   6.118e-02    -1.091    -1.213    -0.123     29.77
   PbNO3+          1.039e-21   8.119e-22   -20.983   -21.091    -0.107     (0)  
O(0)          3.956e-13
   O2              1.978e-13   2.024e-13   -12.704   -12.694     0.010     30.40
Pb            1.062e-12
   Pb(OH)4-2       8.932e-13   3.333e-13   -12.049   -12.477    -0.428     (0)  
   Pb(OH)3-        1.594e-13   1.246e-13   -12.798   -12.905    -0.107     (0)  
   Pb(OH)2         9.077e-15   9.287e-15   -14.042   -14.032     0.010     (0)  
   PbOH+           2.615e-17   2.044e-17   -16.583   -16.690    -0.107     (0)  
   Pb+2            2.404e-21   8.972e-22   -20.619   -21.047    -0.428    -14.85
   PbNO3+          1.039e-21   8.119e-22   -20.983   -21.091    -0.107     (0)  
   PbCl+           7.012e-23   5.480e-23   -22.154   -22.261    -0.107      8.11
   PbCl2           1.302e-25   1.333e-25   -24.885   -24.875     0.010     34.97
   PbCl3-          2.078e-28   1.624e-28   -27.682   -27.789    -0.107     66.22
   PbCl4-2         3.196e-31   1.193e-31   -30.495   -30.923    -0.428    102.42
   Pb2OH+3         3.771e-36   4.105e-37   -35.424   -36.387    -0.963     (0)  
   Pb3(OH)4+2      4.750e-39   1.773e-39   -38.323   -38.751    -0.428     (0)  

------------------------------Saturation indices-------------------------------

  Phase               SI** log IAP   log K(298 K,   1 atm)

  H2(g)           -36.74    -39.84   -3.10  H2
  H2O(g)           -1.50     -0.00    1.50  H2O
  N2(g)             0.23     -2.95   -3.18  N2
  NH3(g)          -52.02    -50.22    1.80  NH3
  O2(g)            -9.80    -12.69   -2.89  O2
  Pb(OH)2          -5.06      3.09    8.15  Pb(OH)2
  Sylvite          -4.83     -3.93    0.90  KCl

**For a gas, SI = log10(fugacity). Fugacity = pressure * phi / 1 atm.
  For ideal gases, phi = 1.

Reaction step 5.

Using solution 0.	
Using surface 1.	
Using reaction 1.	

Reaction 1.	

	  1.000e-02 moles of the following reaction have been added:

	                 Relative
	Reactant            moles

	HNO3                 0.05000

	                 Relative
	Element             moles
	H                    0.05000
	N                    0.05000
	O                    0.15000

------------------------------Surface composition------------------------------

Diffuse Double Layer Surface-Complexation Model

Hfo           
	 -1.346e-03  Surface charge, eq
	 -1.082e+00  sigma, C/m²
	 -2.091e-01  psi, V
	  8.140e+00  -F*psi/RT
	  3.429e+03  exp(-F*psi/RT)
	  6.000e+02  specific area, m²/g
	  1.200e+02  m² for   2.000e-01 g


Hfo_s         
	  1.000e-02  moles
	                                   Mole                     Log
	Species               Moles    Fraction    Molality    Molality

	Hfo_sOH           6.179e-03       0.618   6.180e-03      -2.209
	Hfo_sO-           2.466e-03       0.247   2.466e-03      -2.608
	Hfo_sOPb+         1.000e-03       0.100   1.000e-03      -3.000
	Hfo_sOH2+         3.547e-04       0.035   3.547e-04      -3.450

Hfo_w         
	  1.000e-03  moles
	                                   Mole                     Log
	Species               Moles    Fraction    Molality    Molality

	Hfo_wOH           6.866e-04       0.687   6.866e-04      -3.163
	Hfo_wO-           2.740e-04       0.274   2.740e-04      -3.562
	Hfo_wOH2+         3.941e-05       0.039   3.941e-05      -4.404
	Hfo_wOPb+         4.963e-09       0.000   4.963e-09      -8.304

-----------------------------Solution composition------------------------------

	Elements           Molality       Moles

	Cl                2.000e-03   2.000e-03
	K                 1.000e-01   1.000e-01
	N                 8.344e-02   8.344e-02
	Pb                1.048e-12   1.048e-12

----------------------------Description of solution----------------------------

                                       pH  =  12.066      Charge balance
                                       pe  =   6.282      Adjusted to redox equilibrium
      Specific Conductance (µS/cm,  25°C)  = 13972
                          Density (g/cm³)  =   1.00297
                               Volume (L)  =   1.00627
                        Activity of water  =   0.997
                 Ionic strength (mol/kgw)  =   9.933e-02
                       Mass of water (kg)  =   1.000e+00
                 Total alkalinity (eq/kg)  =   1.542e-02
                         Temperature (°C)  =  25.00
                  Electrical balance (eq)  =   1.346e-03
 Percent error, 100*(Cat-|An|)/(Cat+|An|)  =   0.68
                               Iterations  =  15
                                  Total H  = 1.110223e+02
                                  Total O  = 5.576259e+01

----------------------------Distribution of species----------------------------

                                               Log       Log       Log    mole V
   Species          Molality    Activity  Molality  Activity     Gamma   cm³/mol

   OH-             1.542e-02   1.175e-02    -1.812    -1.930    -0.118     -3.73
   H+              1.040e-12   8.585e-13   -11.983   -12.066    -0.083      0.00
   H2O             5.551e+01   9.966e-01     1.744    -0.001     0.000     18.07
Cl            2.000e-03
   Cl-             2.000e-03   1.534e-03    -2.699    -2.814    -0.115     18.34
   PbCl+           7.089e-23   5.540e-23   -22.149   -22.256    -0.107      8.11
   PbCl2           1.317e-25   1.347e-25   -24.880   -24.871     0.010     34.97
   PbCl3-          2.101e-28   1.642e-28   -27.678   -27.785    -0.107     66.22
   PbCl4-2         3.231e-31   1.206e-31   -30.491   -30.919    -0.428    102.42
H(0)          2.788e-40
   H2              1.394e-40   1.426e-40   -39.856   -39.846     0.010     28.61
K             1.000e-01
   K+              1.000e-01   7.648e-02    -1.000    -1.116    -0.117      9.24
N(-3)         0.000e+00
   NH3             0.000e+00   0.000e+00   -50.235   -50.225     0.010     24.42
   NH4+            0.000e+00   0.000e+00   -52.920   -53.047    -0.128     18.17
N(0)          2.200e-03
   N2              1.100e-03   1.126e-03    -2.959    -2.949     0.010     29.29
N(3)          6.101e-10
   NO2-            6.101e-10   4.600e-10    -9.215    -9.337    -0.123     25.23
N(5)          8.124e-02
   NO3-            8.124e-02   6.125e-02    -1.090    -1.213    -0.123     29.77
   PbNO3+          1.051e-21   8.218e-22   -20.978   -21.085    -0.107     (0)  
O(0)          3.980e-13
   O2              1.990e-13   2.036e-13   -12.701   -12.691     0.010     30.40
Pb            1.048e-12
   Pb(OH)4-2       8.807e-13   3.286e-13   -12.055   -12.483    -0.428     (0)  
   Pb(OH)3-        1.581e-13   1.236e-13   -12.801   -12.908    -0.107     (0)  
   Pb(OH)2         9.062e-15   9.272e-15   -14.043   -14.033     0.010     (0)  
   PbOH+           2.627e-17   2.053e-17   -16.581   -16.688    -0.107     (0)  
   Pb+2            2.431e-21   9.071e-22   -20.614   -21.042    -0.428    -14.85
   PbNO3+          1.051e-21   8.218e-22   -20.978   -21.085    -0.107     (0)  
   PbCl+           7.089e-23   5.540e-23   -22.149   -22.256    -0.107      8.11
   PbCl2           1.317e-25   1.347e-25   -24.880   -24.871     0.010     34.97
   PbCl3-          2.101e-28   1.642e-28   -27.678   -27.785    -0.107     66.22
   PbCl4-2         3.231e-31   1.206e-31   -30.491   -30.919    -0.428    102.42
   Pb2OH+3         3.831e-36   4.169e-37   -35.417   -36.380    -0.963     (0)  
   Pb3(OH)4+2      4.787e-39   1.786e-39   -38.320   -38.748    -0.428     (0)  

------------------------------Saturation indices-------------------------------

  Phase               SI** log IAP   log K(298 K,   1 atm)

  H2(g)           -36.74    -39.85   -3.10  H2
  H2O(g)           -1.50     -0.00    1.50  H2O
  N2(g)             0.23     -2.95   -3.18  N2
  NH3(g)          -52.02    -50.23    1.80  NH3
  O2(g)            -9.80    -12.69   -2.89  O2
  Pb(OH)2          -5.06      3.09    8.15  Pb(OH)2
  Sylvite          -4.83     -3.93    0.90  KCl

**For a gas, SI = log10(fugacity). Fugacity = pressure * phi / 1 atm.
  For ideal gases, phi = 1.

Reaction step 6.

Using solution 0.	
Using surface 1.	
Using reaction 1.	

Reaction 1.	

	  1.200e-02 moles of the following reaction have been added:

	                 Relative
	Reactant            moles

	HNO3                 0.05000

	                 Relative
	Element             moles
	H                    0.05000
	N                    0.05000
	O                    0.15000

------------------------------Surface composition------------------------------

Diffuse Double Layer Surface-Complexation Model

Hfo           
	 -1.343e-03  Surface charge, eq
	 -1.080e+00  sigma, C/m²
	 -2.090e-01  psi, V
	  8.135e+00  -F*psi/RT
	  3.412e+03  exp(-F*psi/RT)
	  6.000e+02  specific area, m²/g
	  1.200e+02  m² for   2.000e-01 g


Hfo_s         
	  1.000e-02  moles
	                                   Mole                     Log
	Species               Moles    Fraction    Molality    Molality

	Hfo_sOH           6.181e-03       0.618   6.181e-03      -2.209
	Hfo_sO-           2.464e-03       0.246   2.464e-03      -2.608
	Hfo_sOPb+         1.000e-03       0.100   1.000e-03      -3.000
	Hfo_sOH2+         3.553e-04       0.036   3.553e-04      -3.449

Hfo_w         
	  1.000e-03  moles
	                                   Mole                     Log
	Species               Moles    Fraction    Molality    Molality

	Hfo_wOH           6.868e-04       0.687   6.868e-04      -3.163
	Hfo_wO-           2.737e-04       0.274   2.737e-04      -3.563
	Hfo_wOH2+         3.947e-05       0.039   3.948e-05      -4.404
	Hfo_wOPb+         4.963e-09       0.000   4.963e-09      -8.304

-----------------------------Solution composition------------------------------

	Elements           Molality       Moles

	Cl                2.000e-03   2.000e-03
	K                 1.000e-01   1.000e-01
	N                 8.354e-02   8.354e-02
	Pb                1.034e-12   1.034e-12

----------------------------Description of solution----------------------------

                                       pH  =  12.064      Charge balance
                                       pe  =   6.285      Adjusted to redox equilibrium
      Specific Conductance (µS/cm,  25°C)  = 13960
                          Density (g/cm³)  =   1.00297
                               Volume (L)  =   1.00627
                        Activity of water  =   0.997
                 Ionic strength (mol/kgw)  =   9.933e-02
                       Mass of water (kg)  =   1.000e+00
                 Total alkalinity (eq/kg)  =   1.532e-02
                         Temperature (°C)  =  25.00
                  Electrical balance (eq)  =   1.343e-03
 Percent error, 100*(Cat-|An|)/(Cat+|An|)  =   0.68
                               Iterations  =  15
                                  Total H  = 1.110224e+02
                                  Total O  = 5.576289e+01

----------------------------Distribution of species----------------------------

                                               Log       Log       Log    mole V
   Species          Molality    Activity  Molality  Activity     Gamma   cm³/mol

   OH-             1.532e-02   1.168e-02    -1.815    -1.933    -0.118     -3.73
   H+              1.046e-12   8.639e-13   -11.980   -12.064    -0.083      0.00
   H2O             5.551e+01   9.966e-01     1.744    -0.001     0.000     18.07
Cl            2.000e-03
   Cl-             2.000e-03   1.534e-03    -2.699    -2.814    -0.115     18.34
   PbCl+           7.167e-23   5.602e-23   -22.145   -22.252    -0.107      8.11
   PbCl2           1.331e-25   1.362e-25   -24.876   -24.866     0.010     34.97
   PbCl3-          2.124e-28   1.660e-28   -27.673   -27.780    -0.107     66.22
   PbCl4-2         3.267e-31   1.219e-31   -30.486   -30.914    -0.428    102.42
H(0)          2.779e-40
   H2              1.390e-40   1.422e-40   -39.857   -39.847     0.010     28.61
K             1.000e-01
   K+              1.000e-01   7.648e-02    -1.000    -1.116    -0.117      9.24
N(-3)         0.000e+00
   NH3             0.000e+00   0.000e+00   -50.237   -50.227     0.010     24.42
   NH4+            0.000e+00   0.000e+00   -52.919   -53.047    -0.128     18.17
N(0)          2.200e-03
   N2              1.100e-03   1.126e-03    -2.959    -2.949     0.010     29.29
N(3)          6.090e-10
   NO2-            6.090e-10   4.592e-10    -9.215    -9.338    -0.123     25.23
N(5)          8.134e-02
   NO3-            8.134e-02   6.133e-02    -1.090    -1.212    -0.123     29.77
   PbNO3+          1.064e-21   8.319e-22   -20.973   -21.080    -0.107     (0)  
O(0)          4.004e-13
   O2              2.002e-13   2.048e-13   -12.699   -12.689     0.010     30.40
Pb            1.034e-12
   Pb(OH)4-2       8.683e-13   3.240e-13   -12.061   -12.489    -0.428     (0)  
   Pb(OH)3-        1.569e-13   1.226e-13   -12.804   -12.911    -0.107     (0)  
   Pb(OH)2         9.048e-15   9.257e-15   -14.043   -14.034     0.010     (0)  
   PbOH+           2.639e-17   2.063e-17   -16.579   -16.686    -0.107     (0)  
   Pb+2            2.458e-21   9.171e-22   -20.609   -21.038    -0.428    -14.85
   PbNO3+          1.064e-21   8.319e-22   -20.973   -21.080    -0.107     (0)  
   PbCl+           7.167e-23   5.602e-23   -22.145   -22.252    -0.107      8.11
   PbCl2           1.331e-25   1.362e-25   -24.876   -24.866     0.010     34.97
   PbCl3-          2.124e-28   1.660e-28   -27.673   -27.780    -0.107     66.22
   PbCl4-2         3.267e-31   1.219e-31   -30.486   -30.914    -0.428    102.42
   Pb2OH+3         3.891e-36   4.235e-37   -35.410   -36.373    -0.963     (0)  
   Pb3(OH)4+2      4.825e-39   1.800e-39   -38.317   -38.745    -0.428     (0)  

------------------------------Saturation indices-------------------------------

  Phase               SI** log IAP   log K(298 K,   1 atm)

  H2(g)           -36.75    -39.85   -3.10  H2
  H2O(g)           -1.50     -0.00    1.50  H2O
  N2(g)             0.23     -2.95   -3.18  N2
  NH3(g)          -52.02    -50.23    1.80  NH3
  O2(g)            -9.80    -12.69   -2.89  O2
  Pb(OH)2          -5.06      3.09    8.15  Pb(OH)2
  Sylvite          -4.83     -3.93    0.90  KCl

**For a gas, SI = log10(fugacity). Fugacity = pressure * phi / 1 atm.
  For ideal gases, phi = 1.

Reaction step 7.

Using solution 0.	
Using surface 1.	
Using reaction 1.	

Reaction 1.	

	  1.400e-02 moles of the following reaction have been added:

	                 Relative
	Reactant            moles

	HNO3                 0.05000

	                 Relative
	Element             moles
	H                    0.05000
	N                    0.05000
	O                    0.15000

------------------------------Surface composition------------------------------

Diffuse Double Layer Surface-Complexation Model

Hfo           
	 -1.339e-03  Surface charge, eq
	 -1.077e+00  sigma, C/m²
	 -2.089e-01  psi, V
	  8.130e+00  -F*psi/RT
	  3.395e+03  exp(-F*psi/RT)
	  6.000e+02  specific area, m²/g
	  1.200e+02  m² for   2.000e-01 g


Hfo_s         
	  1.000e-02  moles
	                                   Mole                     Log
	Species               Moles    Fraction    Molality    Molality

	Hfo_sOH           6.183e-03       0.618   6.183e-03      -2.209
	Hfo_sO-           2.461e-03       0.246   2.461e-03      -2.609
	Hfo_sOPb+         1.000e-03       0.100   1.000e-03      -3.000
	Hfo_sOH2+         3.558e-04       0.036   3.559e-04      -3.449

Hfo_w         
	  1.000e-03  moles
	                                   Mole                     Log
	Species               Moles    Fraction    Molality    Molality

	Hfo_wOH           6.870e-04       0.687   6.870e-04      -3.163
	Hfo_wO-           2.735e-04       0.273   2.735e-04      -3.563
	Hfo_wOH2+         3.954e-05       0.040   3.954e-05      -4.403
	Hfo_wOPb+         4.963e-09       0.000   4.963e-09      -8.304

-----------------------------Solution composition------------------------------

	Elements           Molality       Moles

	Cl                2.000e-03   2.000e-03
	K                 1.000e-01   1.000e-01
	N                 8.364e-02   8.364e-02
	Pb                1.021e-12   1.021e-12

----------------------------Description of solution----------------------------

                                       pH  =  12.061      Charge balance
                                       pe  =   6.288      Adjusted to redox equilibrium
      Specific Conductance (µS/cm,  25°C)  = 13948
                          Density (g/cm³)  =   1.00298
                               Volume (L)  =   1.00628
                        Activity of water  =   0.997
                 Ionic strength (mol/kgw)  =   9.933e-02
                       Mass of water (kg)  =   1.000e+00
                 Total alkalinity (eq/kg)  =   1.522e-02
                         Temperature (°C)  =  25.00
                  Electrical balance (eq)  =   1.339e-03
 Percent error, 100*(Cat-|An|)/(Cat+|An|)  =   0.67
                               Iterations  =  15
                                  Total H  = 1.110225e+02
                                  Total O  = 5.576319e+01

----------------------------Distribution of species----------------------------

                                               Log       Log       Log    mole V
   Species          Molality    Activity  Molality  Activity     Gamma   cm³/mol

   OH-             1.522e-02   1.160e-02    -1.817    -1.935    -0.118     -3.73
   H+              1.053e-12   8.694e-13   -11.978   -12.061    -0.083      0.00
   H2O             5.551e+01   9.966e-01     1.744    -0.001     0.000     18.07
Cl            2.000e-03
   Cl-             2.000e-03   1.534e-03    -2.699    -2.814    -0.115     18.34
   PbCl+           7.247e-23   5.664e-23   -22.140   -22.247    -0.107      8.11
   PbCl2           1.346e-25   1.377e-25   -24.871   -24.861     0.010     34.97
   PbCl3-          2.148e-28   1.678e-28   -27.668   -27.775    -0.107     66.22
   PbCl4-2         3.303e-31   1.233e-31   -30.481   -30.909    -0.428    102.42
H(0)          2.771e-40
   H2              1.385e-40   1.418e-40   -39.858   -39.848     0.010     28.61
K             1.000e-01
   K+              1.000e-01   7.647e-02    -1.000    -1.116    -0.117      9.24
N(-3)         0.000e+00
   NH3             0.000e+00   0.000e+00   -50.239   -50.229     0.010     24.42
   NH4+            0.000e+00   0.000e+00   -52.918   -53.046    -0.128     18.17
N(0)          2.200e-03
   N2              1.100e-03   1.126e-03    -2.959    -2.949     0.010     29.29
N(3)          6.079e-10
   NO2-            6.079e-10   4.583e-10    -9.216    -9.339    -0.123     25.23
N(5)          8.144e-02
   NO3-            8.144e-02   6.140e-02    -1.089    -1.212    -0.123     29.77
   PbNO3+          1.078e-21   8.422e-22   -20.968   -21.075    -0.107     (0)  
O(0)          4.028e-13
   O2              2.014e-13   2.061e-13   -12.696   -12.686     0.010     30.40
Pb            1.021e-12
   Pb(OH)4-2       8.560e-13   3.194e-13   -12.068   -12.496    -0.428     (0)  
   Pb(OH)3-        1.556e-13   1.216e-13   -12.808   -12.915    -0.107     (0)  
   Pb(OH)2         9.033e-15   9.242e-15   -14.044   -14.034     0.010     (0)  
   PbOH+           2.652e-17   2.073e-17   -16.576   -16.684    -0.107     (0)  
   Pb+2            2.485e-21   9.273e-22   -20.605   -21.033    -0.428    -14.85
   PbNO3+          1.078e-21   8.422e-22   -20.968   -21.075    -0.107     (0)  
   PbCl+           7.247e-23   5.664e-23   -22.140   -22.247    -0.107      8.11
   PbCl2           1.346e-25   1.377e-25   -24.871   -24.861     0.010     34.97
   PbCl3-          2.148e-28   1.678e-28   -27.668   -27.775    -0.107     66.22
   PbCl4-2         3.303e-31   1.233e-31   -30.481   -30.909    -0.428    102.42
   Pb2OH+3         3.953e-36   4.302e-37   -35.403   -36.366    -0.963     (0)  
   Pb3(OH)4+2      4.863e-39   1.815e-39   -38.313   -38.741    -0.428     (0)  

------------------------------Saturation indices-------------------------------

  Phase               SI** log IAP   log K(298 K,   1 atm)

  H2(g)           -36.75    -39.85   -3.10  H2
  H2O(g)           -1.50     -0.00    1.50  H2O
  N2(g)             0.23     -2.95   -3.18  N2
  NH3(g)          -52.03    -50.23    1.80  NH3
  O2(g)            -9.79    -12.69   -2.89  O2
  Pb(OH)2          -5.06      3.09    8.15  Pb(OH)2
  Sylvite          -4.83     -3.93    0.90  KCl

**For a gas, SI = log10(fugacity). Fugacity = pressure * phi / 1 atm.
  For ideal gases, phi = 1.

Reaction step 8.

Using solution 0.	
Using surface 1.	
Using reaction 1.	

Reaction 1.	

	  1.600e-02 moles of the following reaction have been added:

	                 Relative
	Reactant            moles

	HNO3                 0.05000

	                 Relative
	Element             moles
	H                    0.05000
	N                    0.05000
	O                    0.15000

------------------------------Surface composition------------------------------

Diffuse Double Layer Surface-Complexation Model

Hfo           
	 -1.336e-03  Surface charge, eq
	 -1.074e+00  sigma, C/m²
	 -2.087e-01  psi, V
	  8.125e+00  -F*psi/RT
	  3.378e+03  exp(-F*psi/RT)
	  6.000e+02  specific area, m²/g
	  1.200e+02  m² for   2.000e-01 g


Hfo_s         
	  1.000e-02  moles
	                                   Mole                     Log
	Species               Moles    Fraction    Molality    Molality

	Hfo_sOH           6.185e-03       0.618   6.185e-03      -2.209
	Hfo_sO-           2.459e-03       0.246   2.459e-03      -2.609
	Hfo_sOPb+         1.000e-03       0.100   1.000e-03      -3.000
	Hfo_sOH2+         3.564e-04       0.036   3.564e-04      -3.448

Hfo_w         
	  1.000e-03  moles
	                                   Mole                     Log
	Species               Moles    Fraction    Molality    Molality

	Hfo_wOH           6.872e-04       0.687   6.872e-04      -3.163
	Hfo_wO-           2.732e-04       0.273   2.732e-04      -3.564
	Hfo_wOH2+         3.960e-05       0.040   3.960e-05      -4.402
	Hfo_wOPb+         4.963e-09       0.000   4.963e-09      -8.304

-----------------------------Solution composition------------------------------

	Elements           Molality       Moles

	Cl                2.000e-03   2.000e-03
	K                 1.000e-01   1.000e-01
	N                 8.374e-02   8.374e-02
	Pb                1.007e-12   1.007e-12

----------------------------Description of solution----------------------------

                                       pH  =  12.058      Charge balance
                                       pe  =   6.292      Adjusted to redox equilibrium
      Specific Conductance (µS/cm,  25°C)  = 13936
                          Density (g/cm³)  =   1.00298
                               Volume (L)  =   1.00628
                        Activity of water  =   0.997
                 Ionic strength (mol/kgw)  =   9.934e-02
                       Mass of water (kg)  =   1.000e+00
                 Total alkalinity (eq/kg)  =   1.513e-02
                         Temperature (°C)  =  25.00
                  Electrical balance (eq)  =   1.336e-03
 Percent error, 100*(Cat-|An|)/(Cat+|An|)  =   0.67
                               Iterations  =  15
                                  Total H  = 1.110226e+02
                                  Total O  = 5.576349e+01

----------------------------Distribution of species----------------------------

                                               Log       Log       Log    mole V
   Species          Molality    Activity  Molality  Activity     Gamma   cm³/mol

   OH-             1.513e-02   1.153e-02    -1.820    -1.938    -0.118     -3.73
   H+              1.060e-12   8.750e-13   -11.975   -12.058    -0.083      0.00
   H2O             5.551e+01   9.966e-01     1.744    -0.001     0.000     18.07
Cl            2.000e-03
   Cl-             2.000e-03   1.534e-03    -2.699    -2.814    -0.115     18.34
   PbCl+           7.328e-23   5.727e-23   -22.135   -22.242    -0.107      8.11
   PbCl2           1.361e-25   1.393e-25   -24.866   -24.856     0.010     34.97
   PbCl3-          2.172e-28   1.697e-28   -27.663   -27.770    -0.107     66.22
   PbCl4-2         3.340e-31   1.246e-31   -30.476   -30.904    -0.428    102.42
H(0)          2.763e-40
   H2              1.381e-40   1.413e-40   -39.860   -39.850     0.010     28.61
K             1.000e-01
   K+              1.000e-01   7.647e-02    -1.000    -1.116    -0.117      9.24
N(-3)         0.000e+00
   NH3             0.000e+00   0.000e+00   -50.241   -50.231     0.010     24.42
   NH4+            0.000e+00   0.000e+00   -52.917   -53.045    -0.128     18.17
N(0)          2.200e-03
   N2              1.100e-03   1.126e-03    -2.959    -2.949     0.010     29.29
N(3)          6.068e-10
   NO2-            6.068e-10   4.575e-10    -9.217    -9.340    -0.123     25.23
N(5)          8.154e-02
   NO3-            8.154e-02   6.148e-02    -1.089    -1.211    -0.123     29.77
   PbNO3+          1.091e-21   8.526e-22   -20.962   -21.069    -0.107     (0)  
O(0)          4.053e-13
   O2              2.026e-13   2.073e-13   -12.693   -12.683     0.010     30.40
Pb            1.007e-12
   Pb(OH)4-2       8.438e-13   3.149e-13   -12.074   -12.502    -0.428     (0)  
   Pb(OH)3-        1.544e-13   1.207e-13   -12.811   -12.918    -0.107     (0)  
   Pb(OH)2         9.019e-15   9.227e-15   -14.045   -14.035     0.010     (0)  
   PbOH+           2.664e-17   2.082e-17   -16.574   -16.681    -0.107     (0)  
   Pb+2            2.513e-21   9.376e-22   -20.600   -21.028    -0.428    -14.85
   PbNO3+          1.091e-21   8.526e-22   -20.962   -21.069    -0.107     (0)  
   PbCl+           7.328e-23   5.727e-23   -22.135   -22.242    -0.107      8.11
   PbCl2           1.361e-25   1.393e-25   -24.866   -24.856     0.010     34.97
   PbCl3-          2.172e-28   1.697e-28   -27.663   -27.770    -0.107     66.22
   PbCl4-2         3.340e-31   1.246e-31   -30.476   -30.904    -0.428    102.42
   Pb2OH+3         4.016e-36   4.371e-37   -35.396   -36.359    -0.963     (0)  
   Pb3(OH)4+2      4.901e-39   1.829e-39   -38.310   -38.738    -0.428     (0)  

------------------------------Saturation indices-------------------------------

  Phase               SI** log IAP   log K(298 K,   1 atm)

  H2(g)           -36.75    -39.85   -3.10  H2
  H2O(g)           -1.50     -0.00    1.50  H2O
  N2(g)             0.23     -2.95   -3.18  N2
  NH3(g)          -52.03    -50.23    1.80  NH3
  O2(g)            -9.79    -12.68   -2.89  O2
  Pb(OH)2          -5.06      3.09    8.15  Pb(OH)2
  Sylvite          -4.83     -3.93    0.90  KCl

**For a gas, SI = log10(fugacity). Fugacity = pressure * phi / 1 atm.
  For ideal gases, phi = 1.

Reaction step 9.

Using solution 0.	
Using surface 1.	
Using reaction 1.	

Reaction 1.	

	  1.800e-02 moles of the following reaction have been added:

	                 Relative
	Reactant            moles

	HNO3                 0.05000

	                 Relative
	Element             moles
	H                    0.05000
	N                    0.05000
	O                    0.15000

------------------------------Surface composition------------------------------

Diffuse Double Layer Surface-Complexation Model

Hfo           
	 -1.332e-03  Surface charge, eq
	 -1.071e+00  sigma, C/m²
	 -2.086e-01  psi, V
	  8.120e+00  -F*psi/RT
	  3.361e+03  exp(-F*psi/RT)
	  6.000e+02  specific area, m²/g
	  1.200e+02  m² for   2.000e-01 g


Hfo_s         
	  1.000e-02  moles
	                                   Mole                     Log
	Species               Moles    Fraction    Molality    Molality

	Hfo_sOH           6.187e-03       0.619   6.187e-03      -2.209
	Hfo_sO-           2.456e-03       0.246   2.456e-03      -2.610
	Hfo_sOPb+         1.000e-03       0.100   1.000e-03      -3.000
	Hfo_sOH2+         3.570e-04       0.036   3.570e-04      -3.447

Hfo_w         
	  1.000e-03  moles
	                                   Mole                     Log
	Species               Moles    Fraction    Molality    Molality

	Hfo_wOH           6.874e-04       0.687   6.874e-04      -3.163
	Hfo_wO-           2.729e-04       0.273   2.729e-04      -3.564
	Hfo_wOH2+         3.967e-05       0.040   3.967e-05      -4.402
	Hfo_wOPb+         4.963e-09       0.000   4.963e-09      -8.304

-----------------------------Solution composition------------------------------

	Elements           Molality       Moles

	Cl                2.000e-03   2.000e-03
	K                 1.000e-01   1.000e-01
	N                 8.384e-02   8.384e-02
	Pb                9.939e-13   9.938e-13

----------------------------Description of solution----------------------------

                                       pH  =  12.055      Charge balance
                                       pe  =   6.295      Adjusted to redox equilibrium
      Specific Conductance (µS/cm,  25°C)  = 13924
                          Density (g/cm³)  =   1.00298
                               Volume (L)  =   1.00629
                        Activity of water  =   0.997
                 Ionic strength (mol/kgw)  =   9.934e-02
                       Mass of water (kg)  =   1.000e+00
                 Total alkalinity (eq/kg)  =   1.503e-02
                         Temperature (°C)  =  25.00
                  Electrical balance (eq)  =   1.332e-03
 Percent error, 100*(Cat-|An|)/(Cat+|An|)  =   0.67
                               Iterations  =  15
                                  Total H  = 1.110227e+02
                                  Total O  = 5.576379e+01

----------------------------Distribution of species----------------------------

                                               Log       Log       Log    mole V
   Species          Molality    Activity  Molality  Activity     Gamma   cm³/mol

   OH-             1.503e-02   1.145e-02    -1.823    -1.941    -0.118     -3.73
   H+              1.067e-12   8.806e-13   -11.972   -12.055    -0.083      0.00
   H2O             5.551e+01   9.966e-01     1.744    -0.001     0.000     18.07
Cl            2.000e-03
   Cl-             2.000e-03   1.534e-03    -2.699    -2.814    -0.115     18.34
   PbCl+           7.410e-23   5.792e-23   -22.130   -22.237    -0.107      8.11
   PbCl2           1.376e-25   1.408e-25   -24.861   -24.851     0.010     34.97
   PbCl3-          2.196e-28   1.716e-28   -27.658   -27.765    -0.107     66.22
   PbCl4-2         3.378e-31   1.260e-31   -30.471   -30.900    -0.428    102.42
H(0)          2.754e-40
   H2              1.377e-40   1.409e-40   -39.861   -39.851     0.010     28.61
K             1.000e-01
   K+              1.000e-01   7.647e-02    -1.000    -1.116    -0.117      9.24
N(-3)         0.000e+00
   NH3             0.000e+00   0.000e+00   -50.243   -50.233     0.010     24.42
   NH4+            0.000e+00   0.000e+00   -52.917   -53.044    -0.128     18.17
N(0)          2.200e-03
   N2              1.100e-03   1.125e-03    -2.959    -2.949     0.010     29.29
N(3)          6.057e-10
   NO2-            6.057e-10   4.567e-10    -9.218    -9.340    -0.123     25.23
N(5)          8.164e-02
   NO3-            8.164e-02   6.155e-02    -1.088    -1.211    -0.123     29.77
   PbNO3+          1.105e-21   8.633e-22   -20.957   -21.064    -0.107     (0)  
O(0)          4.077e-13
   O2              2.039e-13   2.086e-13   -12.691   -12.681     0.010     30.40
Pb            9.939e-13
   Pb(OH)4-2       8.317e-13   3.104e-13   -12.080   -12.508    -0.428     (0)  
   Pb(OH)3-        1.532e-13   1.197e-13   -12.815   -12.922    -0.107     (0)  
   Pb(OH)2         9.004e-15   9.213e-15   -14.046   -14.036     0.010     (0)  
   PbOH+           2.677e-17   2.092e-17   -16.572   -16.679    -0.107     (0)  
   Pb+2            2.541e-21   9.482e-22   -20.595   -21.023    -0.428    -14.85
   PbNO3+          1.105e-21   8.633e-22   -20.957   -21.064    -0.107     (0)  
   PbCl+           7.410e-23   5.792e-23   -22.130   -22.237    -0.107      8.11
   PbCl2           1.376e-25   1.408e-25   -24.861   -24.851     0.010     34.97
   PbCl3-          2.196e-28   1.716e-28   -27.658   -27.765    -0.107     66.22
   PbCl4-2         3.378e-31   1.260e-31   -30.471   -30.900    -0.428    102.42
   Pb2OH+3         4.081e-36   4.442e-37   -35.389   -36.352    -0.963     (0)  
   Pb3(OH)4+2      4.941e-39   1.844e-39   -38.306   -38.734    -0.428     (0)  

------------------------------Saturation indices-------------------------------

  Phase               SI** log IAP   log K(298 K,   1 atm)

  H2(g)           -36.75    -39.85   -3.10  H2
  H2O(g)           -1.50     -0.00    1.50  H2O
  N2(g)             0.23     -2.95   -3.18  N2
  NH3(g)          -52.03    -50.23    1.80  NH3
  O2(g)            -9.79    -12.68   -2.89  O2
  Pb(OH)2          -5.07      3.08    8.15  Pb(OH)2
  Sylvite          -4.83     -3.93    0.90  KCl

**For a gas, SI = log10(fugacity). Fugacity = pressure * phi / 1 atm.
  For ideal gases, phi = 1.

Reaction step 10.

Using solution 0.	
Using surface 1.	
Using reaction 1.	

Reaction 1.	

	  2.000e-02 moles of the following reaction have been added:

	                 Relative
	Reactant            moles

	HNO3                 0.05000

	                 Relative
	Element             moles
	H                    0.05000
	N                    0.05000
	O                    0.15000

------------------------------Surface composition------------------------------

Diffuse Double Layer Surface-Complexation Model

Hfo           
	 -1.329e-03  Surface charge, eq
	 -1.069e+00  sigma, C/m²
	 -2.085e-01  psi, V
	  8.115e+00  -F*psi/RT
	  3.343e+03  exp(-F*psi/RT)
	  6.000e+02  specific area, m²/g
	  1.200e+02  m² for   2.000e-01 g


Hfo_s         
	  1.000e-02  moles
	                                   Mole                     Log
	Species               Moles    Fraction    Molality    Molality

	Hfo_sOH           6.189e-03       0.619   6.189e-03      -2.208
	Hfo_sO-           2.454e-03       0.245   2.454e-03      -2.610
	Hfo_sOPb+         1.000e-03       0.100   1.000e-03      -3.000
	Hfo_sOH2+         3.576e-04       0.036   3.576e-04      -3.447

Hfo_w         
	  1.000e-03  moles
	                                   Mole                     Log
	Species               Moles    Fraction    Molality    Molality

	Hfo_wOH           6.876e-04       0.688   6.877e-04      -3.163
	Hfo_wO-           2.726e-04       0.273   2.726e-04      -3.564
	Hfo_wOH2+         3.973e-05       0.040   3.973e-05      -4.401
	Hfo_wOPb+         4.963e-09       0.000   4.963e-09      -8.304

-----------------------------Solution composition------------------------------

	Elements           Molality       Moles

	Cl                2.000e-03   2.000e-03
	K                 1.000e-01   1.000e-01
	N                 8.394e-02   8.394e-02
	Pb                9.806e-13   9.806e-13

----------------------------Description of solution----------------------------

                                       pH  =  12.052      Charge balance
                                       pe  =   6.299      Adjusted to redox equilibrium
      Specific Conductance (µS/cm,  25°C)  = 13912
                          Density (g/cm³)  =   1.00298
                               Volume (L)  =   1.00629
                        Activity of water  =   0.997
                 Ionic strength (mol/kgw)  =   9.934e-02
                       Mass of water (kg)  =   1.000e+00
                 Total alkalinity (eq/kg)  =   1.493e-02
                         Temperature (°C)  =  25.00
                  Electrical balance (eq)  =   1.329e-03
 Percent error, 100*(Cat-|An|)/(Cat+|An|)  =   0.67
                               Iterations  =  15
                                  Total H  = 1.110228e+02
                                  Total O  = 5.576409e+01

----------------------------Distribution of species----------------------------

                                               Log       Log       Log    mole V
   Species          Molality    Activity  Molality  Activity     Gamma   cm³/mol

   OH-             1.493e-02   1.138e-02    -1.826    -1.944    -0.118     -3.73
   H+              1.073e-12   8.863e-13   -11.969   -12.052    -0.083      0.00
   H2O             5.551e+01   9.966e-01     1.744    -0.001     0.000     18.07
Cl            2.000e-03
   Cl-             2.000e-03   1.534e-03    -2.699    -2.814    -0.115     18.34
   PbCl+           7.494e-23   5.857e-23   -22.125   -22.232    -0.107      8.11
   PbCl2           1.392e-25   1.424e-25   -24.856   -24.846     0.010     34.97
   PbCl3-          2.221e-28   1.736e-28   -27.653   -27.761    -0.107     66.22
   PbCl4-2         3.416e-31   1.275e-31   -30.467   -30.895    -0.428    102.42
H(0)          2.746e-40
   H2              1.373e-40   1.405e-40   -39.862   -39.852     0.010     28.61
K             1.000e-01
   K+              1.000e-01   7.647e-02    -1.000    -1.116    -0.117      9.24
N(-3)         0.000e+00
   NH3             0.000e+00   0.000e+00   -50.245   -50.235     0.010     24.42
   NH4+            0.000e+00   0.000e+00   -52.916   -53.043    -0.128     18.17
N(0)          2.200e-03
   N2              1.100e-03   1.125e-03    -2.959    -2.949     0.010     29.29
N(3)          6.046e-10
   NO2-            6.046e-10   4.558e-10    -9.219    -9.341    -0.123     25.23
N(5)          8.174e-02
   NO3-            8.174e-02   6.163e-02    -1.088    -1.210    -0.123     29.77
   PbNO3+          1.118e-21   8.741e-22   -20.951   -21.058    -0.107     (0)  
O(0)          4.102e-13
   O2              2.051e-13   2.099e-13   -12.688   -12.678     0.010     30.40
Pb            9.806e-13
   Pb(OH)4-2       8.197e-13   3.059e-13   -12.086   -12.514    -0.428     (0)  
   Pb(OH)3-        1.519e-13   1.187e-13   -12.818   -12.925    -0.107     (0)  
   Pb(OH)2         8.990e-15   9.198e-15   -14.046   -14.036     0.010     (0)  
   PbOH+           2.690e-17   2.103e-17   -16.570   -16.677    -0.107     (0)  
   Pb+2            2.570e-21   9.590e-22   -20.590   -21.018    -0.428    -14.85
   PbNO3+          1.118e-21   8.741e-22   -20.951   -21.058    -0.107     (0)  
   PbCl+           7.494e-23   5.857e-23   -22.125   -22.232    -0.107      8.11
   PbCl2           1.392e-25   1.424e-25   -24.856   -24.846     0.010     34.97
   PbCl3-          2.221e-28   1.736e-28   -27.653   -27.761    -0.107     66.22
   PbCl4-2         3.416e-31   1.275e-31   -30.467   -30.895    -0.428    102.42
   Pb2OH+3         4.147e-36   4.514e-37   -35.382   -36.345    -0.963     (0)  
   Pb3(OH)4+2      4.980e-39   1.858e-39   -38.303   -38.731    -0.428     (0)  

------------------------------Saturation indices-------------------------------

  Phase               SI** log IAP   log K(298 K,   1 atm)

  H2(g)           -36.75    -39.85   -3.10  H2
  H2O(g)           -1.50     -0.00    1.50  H2O
  N2(g)             0.23     -2.95   -3.18  N2
  NH3(g)          -52.03    -50.24    1.80  NH3
  O2(g)            -9.79    -12.68   -2.89  O2
  Pb(OH)2          -5.07      3.08    8.15  Pb(OH)2
  Sylvite          -4.83     -3.93    0.90  KCl

**For a gas, SI = log10(fugacity). Fugacity = pressure * phi / 1 atm.
  For ideal gases, phi = 1.

Reaction step 11.

Using solution 0.	
Using surface 1.	
Using reaction 1.	

Reaction 1.	

	  2.200e-02 moles of the following reaction have been added:

	                 Relative
	Reactant            moles

	HNO3                 0.05000

	                 Relative
	Element             moles
	H                    0.05000
	N                    0.05000
	O                    0.15000

------------------------------Surface composition------------------------------

Diffuse Double Layer Surface-Complexation Model

Hfo           
	 -1.326e-03  Surface charge, eq
	 -1.066e+00  sigma, C/m²
	 -2.083e-01  psi, V
	  8.110e+00  -F*psi/RT
	  3.326e+03  exp(-F*psi/RT)
	  6.000e+02  specific area, m²/g
	  1.200e+02  m² for   2.000e-01 g


Hfo_s         
	  1.000e-02  moles
	                                   Mole                     Log
	Species               Moles    Fraction    Molality    Molality

	Hfo_sOH           6.191e-03       0.619   6.191e-03      -2.208
	Hfo_sO-           2.451e-03       0.245   2.451e-03      -2.611
	Hfo_sOPb+         1.000e-03       0.100   1.000e-03      -3.000
	Hfo_sOH2+         3.582e-04       0.036   3.582e-04      -3.446

Hfo_w         
	  1.000e-03  moles
	                                   Mole                     Log
	Species               Moles    Fraction    Molality    Molality

	Hfo_wOH           6.878e-04       0.688   6.879e-04      -3.162
	Hfo_wO-           2.724e-04       0.272   2.724e-04      -3.565
	Hfo_wOH2+         3.980e-05       0.040   3.980e-05      -4.400
	Hfo_wOPb+         4.963e-09       0.000   4.963e-09      -8.304

-----------------------------Solution composition------------------------------

	Elements           Molality       Moles

	Cl                2.000e-03   2.000e-03
	K                 1.000e-01   1.000e-01
	N                 8.404e-02   8.404e-02
	Pb                9.675e-13   9.675e-13

----------------------------Description of solution----------------------------

                                       pH  =  12.050      Charge balance
                                       pe  =   6.302      Adjusted to redox equilibrium
      Specific Conductance (µS/cm,  25°C)  = 13900
                          Density (g/cm³)  =   1.00298
                               Volume (L)  =   1.00630
                        Activity of water  =   0.997
                 Ionic strength (mol/kgw)  =   9.934e-02
                       Mass of water (kg)  =   1.000e+00
                 Total alkalinity (eq/kg)  =   1.484e-02
                         Temperature (°C)  =  25.00
                  Electrical balance (eq)  =   1.326e-03
 Percent error, 100*(Cat-|An|)/(Cat+|An|)  =   0.67
                               Iterations  =  15
                                  Total H  = 1.110229e+02
                                  Total O  = 5.576439e+01

----------------------------Distribution of species----------------------------

                                               Log       Log       Log    mole V
   Species          Molality    Activity  Molality  Activity     Gamma   cm³/mol

   OH-             1.484e-02   1.131e-02    -1.829    -1.947    -0.118     -3.73
   H+              1.080e-12   8.921e-13   -11.966   -12.050    -0.083      0.00
   H2O             5.551e+01   9.966e-01     1.744    -0.001     0.000     18.07
Cl            2.000e-03
   Cl-             2.000e-03   1.534e-03    -2.699    -2.814    -0.115     18.34
   PbCl+           7.580e-23   5.924e-23   -22.120   -22.227    -0.107      8.11
   PbCl2           1.408e-25   1.441e-25   -24.851   -24.841     0.010     34.97
   PbCl3-          2.246e-28   1.756e-28   -27.649   -27.756    -0.107     66.22
   PbCl4-2         3.455e-31   1.289e-31   -30.462   -30.890    -0.428    102.42
H(0)          2.737e-40
   H2              1.369e-40   1.400e-40   -39.864   -39.854     0.010     28.61
K             1.000e-01
   K+              1.000e-01   7.647e-02    -1.000    -1.116    -0.117      9.24
N(-3)         0.000e+00
   NH3             0.000e+00   0.000e+00   -50.247   -50.237     0.010     24.42
   NH4+            0.000e+00   0.000e+00   -52.915   -53.043    -0.128     18.17
N(0)          2.200e-03
   N2              1.100e-03   1.125e-03    -2.959    -2.949     0.010     29.29
N(3)          6.035e-10
   NO2-            6.035e-10   4.550e-10    -9.219    -9.342    -0.123     25.23
N(5)          8.184e-02
   NO3-            8.184e-02   6.170e-02    -1.087    -1.210    -0.123     29.77
   PbNO3+          1.133e-21   8.852e-22   -20.946   -21.053    -0.107     (0)  
O(0)          4.128e-13
   O2              2.064e-13   2.112e-13   -12.685   -12.675     0.010     30.40
Pb            9.675e-13
   Pb(OH)4-2       8.078e-13   3.014e-13   -12.093   -12.521    -0.428     (0)  
   Pb(OH)3-        1.507e-13   1.178e-13   -12.822   -12.929    -0.107     (0)  
   Pb(OH)2         8.975e-15   9.183e-15   -14.047   -14.037     0.010     (0)  
   PbOH+           2.703e-17   2.113e-17   -16.568   -16.675    -0.107     (0)  
   Pb+2            2.599e-21   9.699e-22   -20.585   -21.013    -0.428    -14.85
   PbNO3+          1.133e-21   8.852e-22   -20.946   -21.053    -0.107     (0)  
   PbCl+           7.580e-23   5.924e-23   -22.120   -22.227    -0.107      8.11
   PbCl2           1.408e-25   1.441e-25   -24.851   -24.841     0.010     34.97
   PbCl3-          2.246e-28   1.756e-28   -27.649   -27.756    -0.107     66.22
   PbCl4-2         3.455e-31   1.289e-31   -30.462   -30.890    -0.428    102.42
   Pb2OH+3         4.215e-36   4.588e-37   -35.375   -36.338    -0.963     (0)  
   Pb3(OH)4+2      5.021e-39   1.874e-39   -38.299   -38.727    -0.428     (0)  

------------------------------Saturation indices-------------------------------

  Phase               SI** log IAP   log K(298 K,   1 atm)

  H2(g)           -36.75    -39.85   -3.10  H2
  H2O(g)           -1.50     -0.00    1.50  H2O
  N2(g)             0.23     -2.95   -3.18  N2
  NH3(g)          -52.03    -50.24    1.80  NH3
  O2(g)            -9.78    -12.68   -2.89  O2
  Pb(OH)2          -5.07      3.08    8.15  Pb(OH)2
  Sylvite          -4.83     -3.93    0.90  KCl

**For a gas, SI = log10(fugacity). Fugacity = pressure * phi / 1 atm.
  For ideal gases, phi = 1.

Reaction step 12.

Using solution 0.	
Using surface 1.	
Using reaction 1.	

Reaction 1.	

	  2.400e-02 moles of the following reaction have been added:

	                 Relative
	Reactant            moles

	HNO3                 0.05000

	                 Relative
	Element             moles
	H                    0.05000
	N                    0.05000
	O                    0.15000

------------------------------Surface composition------------------------------

Diffuse Double Layer Surface-Complexation Model

Hfo           
	 -1.322e-03  Surface charge, eq
	 -1.063e+00  sigma, C/m²
	 -2.082e-01  psi, V
	  8.104e+00  -F*psi/RT
	  3.309e+03  exp(-F*psi/RT)
	  6.000e+02  specific area, m²/g
	  1.200e+02  m² for   2.000e-01 g


Hfo_s         
	  1.000e-02  moles
	                                   Mole                     Log
	Species               Moles    Fraction    Molality    Molality

	Hfo_sOH           6.193e-03       0.619   6.193e-03      -2.208
	Hfo_sO-           2.449e-03       0.245   2.449e-03      -2.611
	Hfo_sOPb+         1.000e-03       0.100   1.000e-03      -3.000
	Hfo_sOH2+         3.587e-04       0.036   3.588e-04      -3.445

Hfo_w         
	  1.000e-03  moles
	                                   Mole                     Log
	Species               Moles    Fraction    Molality    Molality

	Hfo_wOH           6.881e-04       0.688   6.881e-04      -3.162
	Hfo_wO-           2.721e-04       0.272   2.721e-04      -3.565
	Hfo_wOH2+         3.986e-05       0.040   3.986e-05      -4.399
	Hfo_wOPb+         4.963e-09       0.000   4.963e-09      -8.304

-----------------------------Solution composition------------------------------

	Elements           Molality       Moles

	Cl                2.000e-03   2.000e-03
	K                 1.000e-01   1.000e-01
	N                 8.414e-02   8.414e-02
	Pb                9.545e-13   9.544e-13

----------------------------Description of solution----------------------------

                                       pH  =  12.047      Charge balance
                                       pe  =   6.306      Adjusted to redox equilibrium
      Specific Conductance (µS/cm,  25°C)  = 13889
                          Density (g/cm³)  =   1.00298
                               Volume (L)  =   1.00630
                        Activity of water  =   0.997
                 Ionic strength (mol/kgw)  =   9.934e-02
                       Mass of water (kg)  =   1.000e+00
                 Total alkalinity (eq/kg)  =   1.474e-02
                         Temperature (°C)  =  25.00
                  Electrical balance (eq)  =   1.322e-03
 Percent error, 100*(Cat-|An|)/(Cat+|An|)  =   0.67
                               Iterations  =  15
                                  Total H  = 1.110230e+02
                                  Total O  = 5.576469e+01

----------------------------Distribution of species----------------------------

                                               Log       Log       Log    mole V
   Species          Molality    Activity  Molality  Activity     Gamma   cm³/mol

   OH-             1.474e-02   1.123e-02    -1.831    -1.949    -0.118     -3.73
   H+              1.088e-12   8.979e-13   -11.964   -12.047    -0.083      0.00
   H2O             5.551e+01   9.966e-01     1.744    -0.001     0.000     18.07
Cl            2.000e-03
   Cl-             2.000e-03   1.534e-03    -2.699    -2.814    -0.115     18.34
   PbCl+           7.667e-23   5.992e-23   -22.115   -22.222    -0.107      8.11
   PbCl2           1.424e-25   1.457e-25   -24.846   -24.837     0.010     34.97
   PbCl3-          2.272e-28   1.776e-28   -27.644   -27.751    -0.107     66.22
   PbCl4-2         3.494e-31   1.304e-31   -30.457   -30.885    -0.428    102.42
H(0)          2.729e-40
   H2              1.364e-40   1.396e-40   -39.865   -39.855     0.010     28.61
K             1.000e-01
   K+              1.000e-01   7.647e-02    -1.000    -1.116    -0.117      9.24
N(-3)         0.000e+00
   NH3             0.000e+00   0.000e+00   -50.249   -50.239     0.010     24.42
   NH4+            0.000e+00   0.000e+00   -52.914   -53.042    -0.128     18.17
N(0)          2.200e-03
   N2              1.100e-03   1.125e-03    -2.959    -2.949     0.010     29.29
N(3)          6.023e-10
   NO2-            6.023e-10   4.541e-10    -9.220    -9.343    -0.123     25.23
N(5)          8.194e-02
   NO3-            8.194e-02   6.178e-02    -1.087    -1.209    -0.123     29.77
   PbNO3+          1.147e-21   8.965e-22   -20.940   -21.047    -0.107     (0)  
O(0)          4.154e-13
   O2              2.077e-13   2.125e-13   -12.683   -12.673     0.010     30.40
Pb            9.545e-13
   Pb(OH)4-2       7.960e-13   2.970e-13   -12.099   -12.527    -0.428     (0)  
   Pb(OH)3-        1.495e-13   1.168e-13   -12.825   -12.932    -0.107     (0)  
   Pb(OH)2         8.960e-15   9.168e-15   -14.048   -14.038     0.010     (0)  
   PbOH+           2.716e-17   2.123e-17   -16.566   -16.673    -0.107     (0)  
   Pb+2            2.629e-21   9.811e-22   -20.580   -21.008    -0.428    -14.85
   PbNO3+          1.147e-21   8.965e-22   -20.940   -21.047    -0.107     (0)  
   PbCl+           7.667e-23   5.992e-23   -22.115   -22.222    -0.107      8.11
   PbCl2           1.424e-25   1.457e-25   -24.846   -24.837     0.010     34.97
   PbCl3-          2.272e-28   1.776e-28   -27.644   -27.751    -0.107     66.22
   PbCl4-2         3.494e-31   1.304e-31   -30.457   -30.885    -0.428    102.42
   Pb2OH+3         4.285e-36   4.663e-37   -35.368   -36.331    -0.963     (0)  
   Pb3(OH)4+2      5.062e-39   1.889e-39   -38.296   -38.724    -0.428     (0)  

------------------------------Saturation indices-------------------------------

  Phase               SI** log IAP   log K(298 K,   1 atm)

[...]
   Pb2OH+3         1.116e-11   1.032e-12   -10.952   -11.986    -1.034     (0)  
   PbCl4-2         6.923e-14   2.403e-14   -13.160   -13.619    -0.460    102.58
   Pb(OH)2         4.692e-18   4.833e-18   -17.329   -17.316     0.013     (0)  
   Pb(OH)3-        4.018e-27   3.084e-27   -26.396   -26.511    -0.115     (0)  
   Pb3(OH)4+2      3.179e-28   1.103e-28   -27.498   -27.957    -0.460     (0)  
   Pb(OH)4-2       1.131e-36   3.927e-37   -35.946   -36.406    -0.460     (0)  

------------------------------Saturation indices-------------------------------

  Phase               SI** log IAP   log K(298 K,   1 atm)

  H2(g)           -40.95    -44.05   -3.10  H2
  H2O(g)           -1.50     -0.00    1.50  H2O
  N2(g)             0.24     -2.94   -3.18  N2
  NH3(g)          -58.32    -56.52    1.80  NH3
  O2(g)            -1.39     -4.29   -2.89  O2
  Pb(OH)2          -8.35     -0.20    8.15  Pb(OH)2
  Sylvite          -4.86     -3.96    0.90  KCl

**For a gas, SI = log10(fugacity). Fugacity = pressure * phi / 1 atm.
  For ideal gases, phi = 1.

Reaction step 498.

Using solution 0.	
Using surface 1.	
Using reaction 1.	

Reaction 1.	

	  9.960e-01 moles of the following reaction have been added:

	                 Relative
	Reactant            moles

	HNO3                 0.05000

	                 Relative
	Element             moles
	H                    0.05000
	N                    0.05000
	O                    0.15000

------------------------------Surface composition------------------------------

Diffuse Double Layer Surface-Complexation Model

Hfo           
	  8.448e-03  Surface charge, eq
	  6.794e+00  sigma, C/m²
	  2.969e-01  psi, V
	 -1.156e+01  -F*psi/RT
	  9.576e-06  exp(-F*psi/RT)
	  6.000e+02  specific area, m²/g
	  1.200e+02  m² for   2.000e-01 g


Hfo_s         
	  1.000e-02  moles
	                                   Mole                     Log
	Species               Moles    Fraction    Molality    Molality

	Hfo_sOH2+         7.685e-03       0.769   7.683e-03      -2.114
	Hfo_sOH           2.288e-03       0.229   2.288e-03      -2.641
	Hfo_sO-           1.561e-05       0.002   1.560e-05      -4.807
	Hfo_sOPb+         1.122e-05       0.001   1.121e-05      -4.950

Hfo_w         
	  1.000e-03  moles
	                                   Mole                     Log
	Species               Moles    Fraction    Molality    Molality

	Hfo_wOH2+         7.694e-04       0.769   7.692e-04      -3.114
	Hfo_wOH           2.291e-04       0.229   2.290e-04      -3.640
	Hfo_wO-           1.562e-06       0.002   1.562e-06      -5.806
	Hfo_wOPb+         5.016e-11       0.000   5.015e-11     -10.300

-----------------------------Solution composition------------------------------

	Elements           Molality       Moles

	Cl                2.000e-03   2.000e-03
	K                 9.998e-02   1.000e-01
	N                 1.327e-01   1.327e-01
	Pb                9.886e-04   9.888e-04

----------------------------Description of solution----------------------------

                                       pH  =   1.745      Charge balance
                                       pe  =  18.705      Adjusted to redox equilibrium
      Specific Conductance (µS/cm,  25°C)  = 20865
                          Density (g/cm³)  =   1.00446
                               Volume (L)  =   1.00806
                        Activity of water  =   0.996
                 Ionic strength (mol/kgw)  =   1.284e-01
                       Mass of water (kg)  =   1.000e+00
                 Total alkalinity (eq/kg)  =  -2.207e-02
                         Temperature (°C)  =  25.00
                  Electrical balance (eq)  =  -8.448e-03
 Percent error, 100*(Cat-|An|)/(Cat+|An|)  =  -3.30
                               Iterations  =  23
                                  Total H  = 1.110599e+02
                                  Total O  = 5.591049e+01

----------------------------Distribution of species----------------------------

                                               Log       Log       Log    mole V
   Species          Molality    Activity  Molality  Activity     Gamma   cm³/mol

   H+              2.207e-02   1.799e-02    -1.656    -1.745    -0.089      0.00
   OH-             7.548e-13   5.602e-13   -12.122   -12.252    -0.129     -3.66
   H2O             5.551e+01   9.956e-01     1.744    -0.002     0.000     18.07
Cl            2.000e-03
   Cl-             1.984e-03   1.484e-03    -2.703    -2.828    -0.126     18.38
   PbCl+           1.587e-05   1.218e-05    -4.799    -4.914    -0.115      8.12
   PbCl2           2.783e-08   2.866e-08    -7.556    -7.543     0.013     34.97
   PbCl3-          4.404e-11   3.380e-11   -10.356   -10.471    -0.115     66.26
   PbCl4-2         6.920e-14   2.401e-14   -13.160   -13.620    -0.460    102.58
H(0)          0.000e+00
   H2              0.000e+00   0.000e+00   -44.062   -44.050     0.013     28.61
K             9.998e-02
   K+              9.998e-02   7.454e-02    -1.000    -1.128    -0.128      9.27
N(-3)         0.000e+00
   NH4+            0.000e+00   0.000e+00   -48.885   -49.026    -0.141     18.20
   NH3             0.000e+00   0.000e+00   -56.538   -56.525     0.013     24.42
N(0)          2.240e-03
   N2              1.120e-03   1.154e-03    -2.951    -2.938     0.013     29.29
N(3)          6.118e-14
   NO2-            6.118e-14   4.483e-14   -13.213   -13.348    -0.135     25.28
N(5)          1.305e-01
   NO3-            1.301e-01   9.531e-02    -0.886    -1.021    -0.135     29.81
   PbNO3+          3.786e-04   2.906e-04    -3.422    -3.537    -0.115     (0)  
O(0)          1.008e-04
   O2              5.040e-05   5.191e-05    -4.298    -4.285     0.013     30.40
Pb            9.886e-04
   Pb+2            5.940e-04   2.061e-04    -3.226    -3.686    -0.460    -14.77
   PbNO3+          3.786e-04   2.906e-04    -3.422    -3.537    -0.115     (0)  
   PbCl+           1.587e-05   1.218e-05    -4.799    -4.914    -0.115      8.12
   PbCl2           2.783e-08   2.866e-08    -7.556    -7.543     0.013     34.97
   PbOH+           2.899e-10   2.225e-10    -9.538    -9.653    -0.115     (0)  
   PbCl3-          4.404e-11   3.380e-11   -10.356   -10.471    -0.115     66.26
   Pb2OH+3         1.111e-11   1.027e-12   -10.954   -11.989    -1.034     (0)  
   PbCl4-2         6.920e-14   2.401e-14   -13.160   -13.620    -0.460    102.58
   Pb(OH)2         4.651e-18   4.791e-18   -17.332   -17.320     0.013     (0)  
   Pb(OH)3-        3.967e-27   3.045e-27   -26.402   -26.516    -0.115     (0)  
   Pb3(OH)4+2      3.123e-28   1.084e-28   -27.505   -27.965    -0.460     (0)  
   Pb(OH)4-2       1.113e-36   3.861e-37   -35.954   -36.413    -0.460     (0)  

------------------------------Saturation indices-------------------------------

  Phase               SI** log IAP   log K(298 K,   1 atm)

  H2(g)           -40.95    -44.05   -3.10  H2
  H2O(g)           -1.50     -0.00    1.50  H2O
  N2(g)             0.24     -2.94   -3.18  N2
  NH3(g)          -58.32    -56.53    1.80  NH3
  O2(g)            -1.39     -4.28   -2.89  O2
  Pb(OH)2          -8.35     -0.20    8.15  Pb(OH)2
  Sylvite          -4.86     -3.96    0.90  KCl

**For a gas, SI = log10(fugacity). Fugacity = pressure * phi / 1 atm.
  For ideal gases, phi = 1.

Reaction step 499.

Using solution 0.	
Using surface 1.	
Using reaction 1.	

Reaction 1.	

	  9.980e-01 moles of the following reaction have been added:

	                 Relative
	Reactant            moles

	HNO3                 0.05000

	                 Relative
	Element             moles
	H                    0.05000
	N                    0.05000
	O                    0.15000

------------------------------Surface composition------------------------------

Diffuse Double Layer Surface-Complexation Model

Hfo           
	  8.455e-03  Surface charge, eq
	  6.799e+00  sigma, C/m²
	  2.969e-01  psi, V
	 -1.156e+01  -F*psi/RT
	  9.568e-06  exp(-F*psi/RT)
	  6.000e+02  specific area, m²/g
	  1.200e+02  m² for   2.000e-01 g


Hfo_s         
	  1.000e-02  moles
	                                   Mole                     Log
	Species               Moles    Fraction    Molality    Molality

	Hfo_sOH2+         7.691e-03       0.769   7.689e-03      -2.114
	Hfo_sOH           2.282e-03       0.228   2.282e-03      -2.642
	Hfo_sO-           1.551e-05       0.002   1.551e-05      -4.809
	Hfo_sOPb+         1.113e-05       0.001   1.113e-05      -4.954

Hfo_w         
	  1.000e-03  moles
	                                   Mole                     Log
	Species               Moles    Fraction    Molality    Molality

	Hfo_wOH2+         7.700e-04       0.770   7.698e-04      -3.114
	Hfo_wOH           2.285e-04       0.228   2.284e-04      -3.641
	Hfo_wO-           1.553e-06       0.002   1.553e-06      -5.809
	Hfo_wOPb+         4.977e-11       0.000   4.975e-11     -10.303

-----------------------------Solution composition------------------------------

	Elements           Molality       Moles

	Cl                2.000e-03   2.000e-03
	K                 9.998e-02   1.000e-01
	N                 1.328e-01   1.328e-01
	Pb                9.886e-04   9.889e-04

----------------------------Description of solution----------------------------

                                       pH  =   1.743      Charge balance
                                       pe  =  18.707      Adjusted to redox equilibrium
      Specific Conductance (µS/cm,  25°C)  = 20899
                          Density (g/cm³)  =   1.00447
                               Volume (L)  =   1.00807
                        Activity of water  =   0.996
                 Ionic strength (mol/kgw)  =   1.285e-01
                       Mass of water (kg)  =   1.000e+00
                 Total alkalinity (eq/kg)  =  -2.216e-02
                         Temperature (°C)  =  25.00
                  Electrical balance (eq)  =  -8.455e-03
 Percent error, 100*(Cat-|An|)/(Cat+|An|)  =  -3.30
                               Iterations  =  23
                                  Total H  = 1.110600e+02
                                  Total O  = 5.591079e+01

----------------------------Distribution of species----------------------------

                                               Log       Log       Log    mole V
   Species          Molality    Activity  Molality  Activity     Gamma   cm³/mol

   H+              2.216e-02   1.806e-02    -1.654    -1.743    -0.089      0.00
   OH-             7.517e-13   5.579e-13   -12.124   -12.253    -0.129     -3.66
   H2O             5.551e+01   9.956e-01     1.744    -0.002     0.000     18.07
Cl            2.000e-03
   Cl-             1.984e-03   1.484e-03    -2.703    -2.828    -0.126     18.38
   PbCl+           1.587e-05   1.218e-05    -4.799    -4.914    -0.115      8.12
   PbCl2           2.781e-08   2.865e-08    -7.556    -7.543     0.013     34.97
   PbCl3-          4.402e-11   3.378e-11   -10.356   -10.471    -0.115     66.26
   PbCl4-2         6.917e-14   2.400e-14   -13.160   -13.620    -0.460    102.58
H(0)          0.000e+00
   H2              0.000e+00   0.000e+00   -44.063   -44.050     0.013     28.61
K             9.998e-02
   K+              9.998e-02   7.453e-02    -1.000    -1.128    -0.128      9.27
N(-3)         0.000e+00
   NH4+            0.000e+00   0.000e+00   -48.884   -49.026    -0.141     18.20
   NH3             0.000e+00   0.000e+00   -56.540   -56.527     0.013     24.42
N(0)          2.240e-03
   N2              1.120e-03   1.154e-03    -2.951    -2.938     0.013     29.29
N(3)          6.111e-14
   NO2-            6.111e-14   4.477e-14   -13.214   -13.349    -0.135     25.28
N(5)          1.306e-01
   NO3-            1.302e-01   9.538e-02    -0.885    -1.021    -0.135     29.81
   PbNO3+          3.788e-04   2.907e-04    -3.422    -3.537    -0.115     (0)  
O(0)          1.012e-04
   O2              5.059e-05   5.211e-05    -4.296    -4.283     0.013     30.40
Pb            9.886e-04
   Pb+2            5.939e-04   2.061e-04    -3.226    -3.686    -0.460    -14.77
   PbNO3+          3.788e-04   2.907e-04    -3.422    -3.537    -0.115     (0)  
   PbCl+           1.587e-05   1.218e-05    -4.799    -4.914    -0.115      8.12
   PbCl2           2.781e-08   2.865e-08    -7.556    -7.543     0.013     34.97
   PbOH+           2.886e-10   2.215e-10    -9.540    -9.655    -0.115     (0)  
   PbCl3-          4.402e-11   3.378e-11   -10.356   -10.471    -0.115     66.26
   Pb2OH+3         1.106e-11   1.022e-12   -10.956   -11.991    -1.034     (0)  
   PbCl4-2         6.917e-14   2.400e-14   -13.160   -13.620    -0.460    102.58
   Pb(OH)2         4.611e-18   4.750e-18   -17.336   -17.323     0.013     (0)  
   Pb(OH)3-        3.917e-27   3.006e-27   -26.407   -26.522    -0.115     (0)  
   Pb3(OH)4+2      3.070e-28   1.065e-28   -27.513   -27.973    -0.460     (0)  
   Pb(OH)4-2       1.094e-36   3.796e-37   -35.961   -36.421    -0.460     (0)  

------------------------------Saturation indices-------------------------------

  Phase               SI** log IAP   log K(298 K,   1 atm)

  H2(g)           -40.95    -44.05   -3.10  H2
  H2O(g)           -1.50     -0.00    1.50  H2O
  N2(g)             0.24     -2.94   -3.18  N2
  NH3(g)          -58.32    -56.53    1.80  NH3
  O2(g)            -1.39     -4.28   -2.89  O2
  Pb(OH)2          -8.35     -0.20    8.15  Pb(OH)2
  Sylvite          -4.86     -3.96    0.90  KCl

**For a gas, SI = log10(fugacity). Fugacity = pressure * phi / 1 atm.
  For ideal gases, phi = 1.

Reaction step 500.

Using solution 0.	
Using surface 1.	
Using reaction 1.	

Reaction 1.	

	  1.000e+00 moles of the following reaction have been added:

	                 Relative
	Reactant            moles

	HNO3                 0.05000

	                 Relative
	Element             moles
	H                    0.05000
	N                    0.05000
	O                    0.15000

------------------------------Surface composition------------------------------

Diffuse Double Layer Surface-Complexation Model

Hfo           
	  8.462e-03  Surface charge, eq
	  6.804e+00  sigma, C/m²
	  2.969e-01  psi, V
	 -1.156e+01  -F*psi/RT
	  9.561e-06  exp(-F*psi/RT)
	  6.000e+02  specific area, m²/g
	  1.200e+02  m² for   2.000e-01 g


Hfo_s         
	  1.000e-02  moles
	                                   Mole                     Log
	Species               Moles    Fraction    Molality    Molality

	Hfo_sOH2+         7.697e-03       0.770   7.695e-03      -2.114
	Hfo_sOH           2.276e-03       0.228   2.276e-03      -2.643
	Hfo_sO-           1.542e-05       0.002   1.542e-05      -4.812
	Hfo_sOPb+         1.104e-05       0.001   1.104e-05      -4.957

Hfo_w         
	  1.000e-03  moles
	                                   Mole                     Log
	Species               Moles    Fraction    Molality    Molality

	Hfo_wOH2+         7.706e-04       0.771   7.704e-04      -3.113
	Hfo_wOH           2.279e-04       0.228   2.278e-04      -3.642
	Hfo_wO-           1.544e-06       0.002   1.544e-06      -5.811
	Hfo_wOPb+         4.938e-11       0.000   4.936e-11     -10.307

-----------------------------Solution composition------------------------------

	Elements           Molality       Moles

	Cl                2.000e-03   2.000e-03
	K                 9.998e-02   1.000e-01
	N                 1.329e-01   1.329e-01
	Pb                9.887e-04   9.890e-04

----------------------------Description of solution----------------------------

                                       pH  =   1.741      Charge balance
                                       pe  =  18.709      Adjusted to redox equilibrium
      Specific Conductance (µS/cm,  25°C)  = 20934
                          Density (g/cm³)  =   1.00447
                               Volume (L)  =   1.00807
                        Activity of water  =   0.996
                 Ionic strength (mol/kgw)  =   1.286e-01
                       Mass of water (kg)  =   1.000e+00
                 Total alkalinity (eq/kg)  =  -2.225e-02
                         Temperature (°C)  =  25.00
                  Electrical balance (eq)  =  -8.462e-03
 Percent error, 100*(Cat-|An|)/(Cat+|An|)  =  -3.30
                               Iterations  =  23
                                  Total H  = 1.110601e+02
                                  Total O  = 5.591109e+01

----------------------------Distribution of species----------------------------

                                               Log       Log       Log    mole V
   Species          Molality    Activity  Molality  Activity     Gamma   cm³/mol

   H+              2.225e-02   1.814e-02    -1.653    -1.741    -0.089      0.00
   OH-             7.487e-13   5.556e-13   -12.126   -12.255    -0.130     -3.66
   H2O             5.551e+01   9.956e-01     1.744    -0.002     0.000     18.07
Cl            2.000e-03
   Cl-             1.984e-03   1.484e-03    -2.703    -2.828    -0.126     18.38
   PbCl+           1.586e-05   1.217e-05    -4.800    -4.915    -0.115      8.12
   PbCl2           2.780e-08   2.864e-08    -7.556    -7.543     0.013     34.97
   PbCl3-          4.399e-11   3.376e-11   -10.357   -10.472    -0.115     66.26
   PbCl4-2         6.915e-14   2.399e-14   -13.160   -13.620    -0.460    102.58
H(0)          0.000e+00
   H2              0.000e+00   0.000e+00   -44.064   -44.051     0.013     28.61
K             9.998e-02
   K+              9.998e-02   7.453e-02    -1.000    -1.128    -0.128      9.27
N(-3)         0.000e+00
   NH4+            0.000e+00   0.000e+00   -48.884   -49.025    -0.141     18.20
   NH3             0.000e+00   0.000e+00   -56.541   -56.528     0.013     24.42
N(0)          2.240e-03
   N2              1.120e-03   1.154e-03    -2.951    -2.938     0.013     29.29
N(3)          6.104e-14
   NO2-            6.104e-14   4.472e-14   -13.214   -13.350    -0.135     25.28
N(5)          1.307e-01
   NO3-            1.303e-01   9.544e-02    -0.885    -1.020    -0.135     29.81
   PbNO3+          3.790e-04   2.908e-04    -3.421    -3.536    -0.115     (0)  
O(0)          1.016e-04
   O2              5.078e-05   5.231e-05    -4.294    -4.281     0.013     30.40
Pb            9.887e-04
   Pb+2            5.939e-04   2.060e-04    -3.226    -3.686    -0.460    -14.77
   PbNO3+          3.790e-04   2.908e-04    -3.421    -3.536    -0.115     (0)  
   PbCl+           1.586e-05   1.217e-05    -4.800    -4.915    -0.115      8.12
   PbCl2           2.780e-08   2.864e-08    -7.556    -7.543     0.013     34.97
   PbOH+           2.873e-10   2.205e-10    -9.542    -9.657    -0.115     (0)  
   PbCl3-          4.399e-11   3.376e-11   -10.357   -10.472    -0.115     66.26
   Pb2OH+3         1.101e-11   1.017e-12   -10.958   -11.993    -1.035     (0)  
   PbCl4-2         6.915e-14   2.399e-14   -13.160   -13.620    -0.460    102.58
   Pb(OH)2         4.571e-18   4.709e-18   -17.340   -17.327     0.013     (0)  
   Pb(OH)3-        3.867e-27   2.968e-27   -26.413   -26.528    -0.115     (0)  
   Pb3(OH)4+2      3.017e-28   1.046e-28   -27.520   -27.980    -0.460     (0)  
   Pb(OH)4-2       1.076e-36   3.732e-37   -35.968   -36.428    -0.460     (0)  

------------------------------Saturation indices-------------------------------

  Phase               SI** log IAP   log K(298 K,   1 atm)

  H2(g)           -40.95    -44.05   -3.10  H2
  H2O(g)           -1.50     -0.00    1.50  H2O
  N2(g)             0.24     -2.94   -3.18  N2
  NH3(g)          -58.32    -56.53    1.80  NH3
  O2(g)            -1.39     -4.28   -2.89  O2
  Pb(OH)2          -8.36     -0.21    8.15  Pb(OH)2
  Sylvite          -4.86     -3.96    0.90  KCl

**For a gas, SI = log10(fugacity). Fugacity = pressure * phi / 1 atm.
  For ideal gases, phi = 1.

------------------
End of simulation.
------------------

------------------------------------
Reading input data for simulation 2.
------------------------------------

-------------------------------
End of Run after 3.849 Seconds.
-------------------------------

